
OS:Version,
  {b85904d1-4f04-490f-a342-e9519301b9ab}, !- Handle
  3.7.0;                                  !- Version Identifier

OS:WeatherFile,
  {377bd887-fc52-4aad-801c-e8461ba83ad0}, !- Handle
  Aurora Buckley Field Angb,              !- City
  CO,                                     !- State Province Region
  USA,                                    !- Country
  TMY3,                                   !- Data Source
  724695,                                 !- WMO Number
  39.72,                                  !- Latitude {deg}
  -104.75,                                !- Longitude {deg}
  -7,                                     !- Time Zone {hr}
  1726,                                   !- Elevation {m}
  /weather/G0800310.epw,                  !- Url
  6108D70C,                               !- Checksum
  ,                                       !- Start Date Actual Year
  Sunday;                                 !- Start Day of Week

OS:YearDescription,
  {5006d502-31bf-4ff8-843e-3428d78ee5a4}, !- Handle
  2018,                                   !- Calendar Year
  ,                                       !- Day of Week for Start Day
  ;                                       !- Is Leap Year

OS:Site,
  {f8e29a32-8e17-42f9-802d-18dbc79a123f}, !- Handle
  Aurora Buckley Field Angb_CO_USA,       !- Name
  39.72,                                  !- Latitude {deg}
  -104.75,                                !- Longitude {deg}
  -7,                                     !- Time Zone {hr}
  1726,                                   !- Elevation {m}
  Suburbs;                                !- Terrain

OS:RunPeriodControl:DaylightSavingTime,
  {5257602a-1bf3-4884-a9cc-d6da577c7232}, !- Handle
  Mar 12,                                 !- Start Date
  Nov 5;                                  !- End Date

OS:Site:GroundTemperature:Shallow,
  {b7694830-6b56-46ad-82b0-1f2fef8d8eae}, !- Handle
  5.74779807726293,                       !- January Surface Ground Temperature {C}
  3.93369421172941,                       !- February Surface Ground Temperature {C}
  3.78841426841401,                       !- March Surface Ground Temperature {C}
  4.64929924678728,                       !- April Surface Ground Temperature {C}
  8.10527271213475,                       !- May Surface Ground Temperature {C}
  11.5451467869795,                       !- June Surface Ground Temperature {C}
  14.5273337683838,                       !- July Surface Ground Temperature {C}
  16.4164758757094,                       !- August Surface Ground Temperature {C}
  16.5769688740467,                       !- September Surface Ground Temperature {C}
  15.0404692911898,                       !- October Surface Ground Temperature {C}
  12.1343298286974,                       !- November Surface Ground Temperature {C}
  8.79997707961545;                       !- December Surface Ground Temperature {C}

OS:SimulationControl,
  {c48c5e5e-cfc2-4d49-b066-717e952ea8cd}, !- Handle
  ,                                       !- Do Zone Sizing Calculation
  ,                                       !- Do System Sizing Calculation
  ,                                       !- Do Plant Sizing Calculation
  No;                                     !- Run Simulation for Sizing Periods

OS:Timestep,
  {441586e5-b62c-493d-a434-73b665233a2b}, !- Handle
  4;                                      !- Number of Timesteps per Hour

OS:ShadowCalculation,
  {4df032ff-f702-4d17-91ab-c4a8ff4ca1dd}, !- Handle
  PolygonClipping,                        !- Shading Calculation Method
  ,                                       !- Shading Calculation Update Frequency Method
  20,                                     !- Shading Calculation Update Frequency
  200,                                    !- Maximum Figures in Shadow Overlap Calculations
  ,                                       !- Polygon Clipping Algorithm
  512,                                    !- Pixel Counting Resolution
  ,                                       !- Sky Diffuse Modeling Algorithm
  No,                                     !- Output External Shading Calculation Results
  No,                                     !- Disable Self-Shading Within Shading Zone Groups
  No;                                     !- Disable Self-Shading From Shading Zone Groups to Other Zones

OS:SurfaceConvectionAlgorithm:Outside,
  {1b39967d-6b6a-4e59-98bf-f766542db8bc}, !- Handle
  DOE-2;                                  !- Algorithm

OS:SurfaceConvectionAlgorithm:Inside,
  {c140763a-3b15-4e24-a528-2294a9a94564}, !- Handle
  TARP;                                   !- Algorithm

OS:ZoneCapacitanceMultiplier:ResearchSpecial,
  {4d445184-3183-446e-9576-e112a449c018}, !- Handle
  1,                                      !- Temperature Capacity Multiplier
  15,                                     !- Humidity Capacity Multiplier
  ;                                       !- Carbon Dioxide Capacity Multiplier

OS:ConvergenceLimits,
  {2ba25b17-b9b4-456f-9b71-b8e13eee4de9}, !- Handle
  0;                                      !- Minimum System Timestep {minutes}

OS:RunPeriod,
  {db136075-74f4-4160-9279-6f40ce5e02d6}, !- Handle
  Run Period 1,                           !- Name
  1,                                      !- Begin Month
  1,                                      !- Begin Day of Month
  12,                                     !- End Month
  31,                                     !- End Day of Month
  ,                                       !- Use Weather File Holidays and Special Days
  ,                                       !- Use Weather File Daylight Saving Period
  ,                                       !- Apply Weekend Holiday Rule
  ,                                       !- Use Weather File Rain Indicators
  ,                                       !- Use Weather File Snow Indicators
  ;                                       !- Number of Times Runperiod to be Repeated

OS:PerformancePrecisionTradeoffs,
  {f30987f9-a2ba-4107-a6a2-10a8161907f7}, !- Handle
  ,                                       !- Use Coil Direct Solutions
  CarrollMRT;                             !- Zone Radiant Exchange Algorithm

OS:ThermalZone,
  {76ae0c3e-ae35-4d1f-92b7-9d657e8e4520}, !- Handle
  conditioned space,                      !- Name
  1,                                      !- Multiplier
  ,                                       !- Ceiling Height {m}
  384.656044105728,                       !- Volume {m3}
  ,                                       !- Floor Area {m2}
  ,                                       !- Zone Inside Convection Algorithm
  ,                                       !- Zone Outside Convection Algorithm
  ,                                       !- Zone Conditioning Equipment List Name
  {22920e08-698f-44e7-bfdd-990b0a7da077}, !- Zone Air Inlet Port List
  {600644db-56fc-402b-95e3-3b17f59c1582}, !- Zone Air Exhaust Port List
  {641ca53a-9a5e-4873-8fd7-2af7e102c1d7}, !- Zone Air Node Name
  {a4512804-0b93-4acd-96a2-d4f3ab78c8d7}, !- Zone Return Air Port List
  ,                                       !- Primary Daylighting Control Name
  ,                                       !- Fraction of Zone Controlled by Primary Daylighting Control
  ,                                       !- Secondary Daylighting Control Name
  ,                                       !- Fraction of Zone Controlled by Secondary Daylighting Control
  ,                                       !- Illuminance Map Name
  ,                                       !- Group Rendering Name
  {89090366-2918-4c52-8c29-013c9a2fc150}, !- Thermostat Name
  No;                                     !- Use Ideal Air Loads

OS:Node,
  {d9006c4b-57db-462a-b63b-207732d6eaf9}, !- Handle
  Node 1,                                 !- Name
  {641ca53a-9a5e-4873-8fd7-2af7e102c1d7}, !- Inlet Port
  ;                                       !- Outlet Port

OS:Connection,
  {641ca53a-9a5e-4873-8fd7-2af7e102c1d7}, !- Handle
  {76ae0c3e-ae35-4d1f-92b7-9d657e8e4520}, !- Source Object
  11,                                     !- Outlet Port
  {d9006c4b-57db-462a-b63b-207732d6eaf9}, !- Target Object
  2;                                      !- Inlet Port

OS:PortList,
  {22920e08-698f-44e7-bfdd-990b0a7da077}, !- Handle
  {76ae0c3e-ae35-4d1f-92b7-9d657e8e4520}, !- HVAC Component
  {fb142c02-a704-43e2-87e7-de6013a608bb}; !- Port 1

OS:PortList,
  {600644db-56fc-402b-95e3-3b17f59c1582}, !- Handle
  {76ae0c3e-ae35-4d1f-92b7-9d657e8e4520}; !- HVAC Component

OS:PortList,
  {a4512804-0b93-4acd-96a2-d4f3ab78c8d7}, !- Handle
  {76ae0c3e-ae35-4d1f-92b7-9d657e8e4520}, !- HVAC Component
  {36af7450-4a90-4ce4-afaf-9c25db118062}; !- Port 1

OS:Sizing:Zone,
  {af2f303c-aa7a-4f9a-a73e-b9ffaf1b77ee}, !- Handle
  {76ae0c3e-ae35-4d1f-92b7-9d657e8e4520}, !- Zone or ZoneList Name
  SupplyAirTemperature,                   !- Zone Cooling Design Supply Air Temperature Input Method
  14,                                     !- Zone Cooling Design Supply Air Temperature {C}
  11.11,                                  !- Zone Cooling Design Supply Air Temperature Difference {deltaC}
  SupplyAirTemperature,                   !- Zone Heating Design Supply Air Temperature Input Method
  40,                                     !- Zone Heating Design Supply Air Temperature {C}
  11.11,                                  !- Zone Heating Design Supply Air Temperature Difference {deltaC}
  0.0085,                                 !- Zone Cooling Design Supply Air Humidity Ratio {kg-H2O/kg-air}
  0.008,                                  !- Zone Heating Design Supply Air Humidity Ratio {kg-H2O/kg-air}
  ,                                       !- Zone Heating Sizing Factor
  ,                                       !- Zone Cooling Sizing Factor
  DesignDay,                              !- Cooling Design Air Flow Method
  ,                                       !- Cooling Design Air Flow Rate {m3/s}
  ,                                       !- Cooling Minimum Air Flow per Zone Floor Area {m3/s-m2}
  ,                                       !- Cooling Minimum Air Flow {m3/s}
  ,                                       !- Cooling Minimum Air Flow Fraction
  DesignDay,                              !- Heating Design Air Flow Method
  ,                                       !- Heating Design Air Flow Rate {m3/s}
  ,                                       !- Heating Maximum Air Flow per Zone Floor Area {m3/s-m2}
  ,                                       !- Heating Maximum Air Flow {m3/s}
  ,                                       !- Heating Maximum Air Flow Fraction
  No,                                     !- Account for Dedicated Outdoor Air System
  NeutralSupplyAir,                       !- Dedicated Outdoor Air System Control Strategy
  autosize,                               !- Dedicated Outdoor Air Low Setpoint Temperature for Design {C}
  autosize,                               !- Dedicated Outdoor Air High Setpoint Temperature for Design {C}
  Sensible Load Only No Latent Load,      !- Zone Load Sizing Method
  HumidityRatioDifference,                !- Zone Latent Cooling Design Supply Air Humidity Ratio Input Method
  ,                                       !- Zone Dehumidification Design Supply Air Humidity Ratio {kgWater/kgDryAir}
  0.005,                                  !- Zone Cooling Design Supply Air Humidity Ratio Difference {kgWater/kgDryAir}
  HumidityRatioDifference,                !- Zone Latent Heating Design Supply Air Humidity Ratio Input Method
  ,                                       !- Zone Humidification Design Supply Air Humidity Ratio {kgWater/kgDryAir}
  0.005;                                  !- Zone Humidification Design Supply Air Humidity Ratio Difference {kgWater/kgDryAir}

OS:ZoneHVAC:EquipmentList,
  {6fd4bcee-32d6-4095-9bcb-f59d3acd18b3}, !- Handle
  Zone HVAC Equipment List 1,             !- Name
  {76ae0c3e-ae35-4d1f-92b7-9d657e8e4520}, !- Thermal Zone
  ,                                       !- Load Distribution Scheme
  {71f74e15-69c4-4e26-ac51-990d4dece90d}, !- Zone Equipment 1
  1,                                      !- Zone Equipment Cooling Sequence 1
  1,                                      !- Zone Equipment Heating or No-Load Sequence 1
  {c49a7efc-2059-4b79-8276-b8beaa457c9c}, !- Zone Equipment Sequential Cooling Fraction Schedule Name 1
  {683f12d6-68d4-44be-a2b1-6505e5f64836}; !- Zone Equipment Sequential Heating Fraction Schedule Name 1

OS:AdditionalProperties,
  {ccfe9993-5ec3-4c09-b194-97006610fdef}, !- Handle
  {76ae0c3e-ae35-4d1f-92b7-9d657e8e4520}, !- Object Name
  ObjectType,                             !- Feature Name 1
  String,                                 !- Feature Data Type 1
  conditioned space;                      !- Feature Value 1

OS:Space,
  {a7c71433-f3b0-45ec-908a-f94758496f31}, !- Handle
  conditioned space 1,                    !- Name
  ,                                       !- Space Type Name
  ,                                       !- Default Construction Set Name
  ,                                       !- Default Schedule Set Name
  ,                                       !- Direction of Relative North {deg}
  ,                                       !- X Origin {m}
  ,                                       !- Y Origin {m}
  ,                                       !- Z Origin {m}
  ,                                       !- Building Story Name
  {76ae0c3e-ae35-4d1f-92b7-9d657e8e4520}, !- Thermal Zone Name
  ,                                       !- Part of Total Floor Area
  ,                                       !- Design Specification Outdoor Air Object Name
  {d8fca48b-eb0c-4ec8-b5d7-b70a390a7de9}, !- Building Unit Name
  384.656044105728;                       !- Volume {m3}

OS:Schedule:Ruleset,
  {8c5c4de7-7e7d-4139-aee9-7da8202b3fb2}, !- Handle
  heating setpoint,                       !- Name
  {93d7906a-651e-4524-b74e-b64d83d27d66}, !- Schedule Type Limits Name
  {8fae0897-2b59-4ffc-a216-6caf36a5bbd5}; !- Default Day Schedule Name

OS:Schedule:Day,
  {8fae0897-2b59-4ffc-a216-6caf36a5bbd5}, !- Handle
  heating setpoint default day,           !- Name
  {93d7906a-651e-4524-b74e-b64d83d27d66}, !- Schedule Type Limits Name
  ,                                       !- Interpolate to Timestep
  24,                                     !- Hour 1
  0,                                      !- Minute 1
  0;                                      !- Value Until Time 1

OS:Schedule:Rule,
  {61bb4179-09c8-4b81-bbd3-ca010091eea6}, !- Handle
  heating setpoint allday ruleset1,       !- Name
  {8c5c4de7-7e7d-4139-aee9-7da8202b3fb2}, !- Schedule Ruleset Name
  0,                                      !- Rule Order
  {93780212-0356-47e7-972a-d3abac2126be}, !- Day Schedule Name
  Yes,                                    !- Apply Sunday
  Yes,                                    !- Apply Monday
  Yes,                                    !- Apply Tuesday
  Yes,                                    !- Apply Wednesday
  Yes,                                    !- Apply Thursday
  Yes,                                    !- Apply Friday
  Yes,                                    !- Apply Saturday
  DateRange,                              !- Date Specification Type
  1,                                      !- Start Month
  1,                                      !- Start Day
  12,                                     !- End Month
  31;                                     !- End Day

OS:Schedule:Day,
  {93780212-0356-47e7-972a-d3abac2126be}, !- Handle
  heating setpoint allday1,               !- Name
  {93d7906a-651e-4524-b74e-b64d83d27d66}, !- Schedule Type Limits Name
  ,                                       !- Interpolate to Timestep
  24,                                     !- Hour 1
  0,                                      !- Minute 1
  21.1111111111111;                       !- Value Until Time 1

OS:Schedule:Ruleset,
  {80fe1529-eeda-42ca-966f-f006adeb2420}, !- Handle
  cooling setpoint,                       !- Name
  {93d7906a-651e-4524-b74e-b64d83d27d66}, !- Schedule Type Limits Name
  {61093e4a-7d4d-48c4-a7cd-8063d2739d63}; !- Default Day Schedule Name

OS:Schedule:Day,
  {61093e4a-7d4d-48c4-a7cd-8063d2739d63}, !- Handle
  cooling setpoint default day,           !- Name
  {93d7906a-651e-4524-b74e-b64d83d27d66}, !- Schedule Type Limits Name
  ,                                       !- Interpolate to Timestep
  24,                                     !- Hour 1
  0,                                      !- Minute 1
  0;                                      !- Value Until Time 1

OS:Schedule:Rule,
  {799179e6-a5fc-4a66-838d-d9153b6215a7}, !- Handle
  cooling setpoint allday ruleset1,       !- Name
  {80fe1529-eeda-42ca-966f-f006adeb2420}, !- Schedule Ruleset Name
  0,                                      !- Rule Order
  {aff0652b-c907-470c-add9-7c47e965453f}, !- Day Schedule Name
  Yes,                                    !- Apply Sunday
  Yes,                                    !- Apply Monday
  Yes,                                    !- Apply Tuesday
  Yes,                                    !- Apply Wednesday
  Yes,                                    !- Apply Thursday
  Yes,                                    !- Apply Friday
  Yes,                                    !- Apply Saturday
  DateRange,                              !- Date Specification Type
  1,                                      !- Start Month
  1,                                      !- Start Day
  12,                                     !- End Month
  31;                                     !- End Day

OS:Schedule:Day,
  {aff0652b-c907-470c-add9-7c47e965453f}, !- Handle
  cooling setpoint allday1,               !- Name
  {93d7906a-651e-4524-b74e-b64d83d27d66}, !- Schedule Type Limits Name
  ,                                       !- Interpolate to Timestep
  24,                                     !- Hour 1
  0,                                      !- Minute 1
  21.1111111111111;                       !- Value Until Time 1

OS:ThermostatSetpoint:DualSetpoint,
  {89090366-2918-4c52-8c29-013c9a2fc150}, !- Handle
  conditioned space temperature setpoint, !- Name
  {8c5c4de7-7e7d-4139-aee9-7da8202b3fb2}, !- Heating Setpoint Temperature Schedule Name
  {80fe1529-eeda-42ca-966f-f006adeb2420}; !- Cooling Setpoint Temperature Schedule Name

OS:ScheduleTypeLimits,
  {93d7906a-651e-4524-b74e-b64d83d27d66}, !- Handle
  Temperature,                            !- Name
  ,                                       !- Lower Limit Value
  ,                                       !- Upper Limit Value
  Continuous,                             !- Numeric Type
  Temperature;                            !- Unit Type

OS:Surface,
  {9a13c026-2c7c-4a00-a128-558599697035}, !- Handle
  Roof1,                                  !- Name
  RoofCeiling,                            !- Surface Type
  {de637ec2-3344-4ff1-84f1-788017d12de6}, !- Construction Name
  {263e1161-7dd3-4583-ba27-b84d3f8bca38}, !- Space Name
  Outdoors,                               !- Outside Boundary Condition
  ,                                       !- Outside Boundary Condition Object
  SunExposed,                             !- Sun Exposure
  WindExposed,                            !- Wind Exposure
  ,                                       !- View Factor to Ground
  ,                                       !- Number of Vertices
  13.7571187551506, 30.945528152087, 5.1816, !- X,Y,Z Vertex 1 {m}
  9.5575099852883, 26.7459195504081, 8.15117178003833, !- X,Y,Z Vertex 2 {m}
  14.2528151414118, 22.0506142062499, 8.15117178003833, !- X,Y,Z Vertex 3 {m}
  18.4524239112741, 26.2502228079289, 5.1816; !- X,Y,Z Vertex 4 {m}

OS:AdditionalProperties,
  {6e78c79a-2b92-4cc7-a39e-1979184b54f1}, !- Handle
  {9a13c026-2c7c-4a00-a128-558599697035}, !- Object Name
  Length,                                 !- Feature Name 1
  Double,                                 !- Feature Data Type 1
  21.785316155612705,                     !- Feature Value 1
  Width,                                  !- Feature Name 2
  Double,                                 !- Feature Data Type 2
  21.785316155612708,                     !- Feature Value 2
  Azimuth,                                !- Feature Name 3
  Integer,                                !- Feature Data Type 3
  45,                                     !- Feature Value 3
  Tilt,                                   !- Feature Name 4
  Double,                                 !- Feature Data Type 4
  0.5,                                    !- Feature Value 4
  SurfaceType,                            !- Feature Name 5
  String,                                 !- Feature Data Type 5
  Roof;                                   !- Feature Value 5

OS:ThermalZone,
  {5cef05d8-4a01-487c-81db-42ac4514fc55}, !- Handle
  attic - vented,                         !- Name
  1,                                      !- Multiplier
  ,                                       !- Ceiling Height {m}
  80.9187811413394,                       !- Volume {m3}
  ,                                       !- Floor Area {m2}
  ,                                       !- Zone Inside Convection Algorithm
  ,                                       !- Zone Outside Convection Algorithm
  ,                                       !- Zone Conditioning Equipment List Name
  {8fe49f03-b2fd-4a71-8d84-b2c5f430fce2}, !- Zone Air Inlet Port List
  {f53e1032-45f0-4993-ac4f-3ceac05ebe09}, !- Zone Air Exhaust Port List
  {b7107f3d-98c3-4ceb-8cc9-ba644844bcd0}, !- Zone Air Node Name
  {ec5ed484-ac51-42a1-beba-00a7586f35a2}, !- Zone Return Air Port List
  ,                                       !- Primary Daylighting Control Name
  ,                                       !- Fraction of Zone Controlled by Primary Daylighting Control
  ,                                       !- Secondary Daylighting Control Name
  ,                                       !- Fraction of Zone Controlled by Secondary Daylighting Control
  ,                                       !- Illuminance Map Name
  ,                                       !- Group Rendering Name
  ,                                       !- Thermostat Name
  No;                                     !- Use Ideal Air Loads

OS:Node,
  {ac022dc4-b884-4039-98a7-aca5389fa7a8}, !- Handle
  Node 2,                                 !- Name
  {b7107f3d-98c3-4ceb-8cc9-ba644844bcd0}, !- Inlet Port
  ;                                       !- Outlet Port

OS:Connection,
  {b7107f3d-98c3-4ceb-8cc9-ba644844bcd0}, !- Handle
  {5cef05d8-4a01-487c-81db-42ac4514fc55}, !- Source Object
  11,                                     !- Outlet Port
  {ac022dc4-b884-4039-98a7-aca5389fa7a8}, !- Target Object
  2;                                      !- Inlet Port

OS:PortList,
  {8fe49f03-b2fd-4a71-8d84-b2c5f430fce2}, !- Handle
  {5cef05d8-4a01-487c-81db-42ac4514fc55}; !- HVAC Component

OS:PortList,
  {f53e1032-45f0-4993-ac4f-3ceac05ebe09}, !- Handle
  {5cef05d8-4a01-487c-81db-42ac4514fc55}; !- HVAC Component

OS:PortList,
  {ec5ed484-ac51-42a1-beba-00a7586f35a2}, !- Handle
  {5cef05d8-4a01-487c-81db-42ac4514fc55}; !- HVAC Component

OS:Sizing:Zone,
  {e179f371-a80d-4b32-8bbb-63ffd77d2013}, !- Handle
  {5cef05d8-4a01-487c-81db-42ac4514fc55}, !- Zone or ZoneList Name
  SupplyAirTemperature,                   !- Zone Cooling Design Supply Air Temperature Input Method
  14,                                     !- Zone Cooling Design Supply Air Temperature {C}
  11.11,                                  !- Zone Cooling Design Supply Air Temperature Difference {deltaC}
  SupplyAirTemperature,                   !- Zone Heating Design Supply Air Temperature Input Method
  40,                                     !- Zone Heating Design Supply Air Temperature {C}
  11.11,                                  !- Zone Heating Design Supply Air Temperature Difference {deltaC}
  0.0085,                                 !- Zone Cooling Design Supply Air Humidity Ratio {kg-H2O/kg-air}
  0.008,                                  !- Zone Heating Design Supply Air Humidity Ratio {kg-H2O/kg-air}
  ,                                       !- Zone Heating Sizing Factor
  ,                                       !- Zone Cooling Sizing Factor
  DesignDay,                              !- Cooling Design Air Flow Method
  ,                                       !- Cooling Design Air Flow Rate {m3/s}
  ,                                       !- Cooling Minimum Air Flow per Zone Floor Area {m3/s-m2}
  ,                                       !- Cooling Minimum Air Flow {m3/s}
  ,                                       !- Cooling Minimum Air Flow Fraction
  DesignDay,                              !- Heating Design Air Flow Method
  ,                                       !- Heating Design Air Flow Rate {m3/s}
  ,                                       !- Heating Maximum Air Flow per Zone Floor Area {m3/s-m2}
  ,                                       !- Heating Maximum Air Flow {m3/s}
  ,                                       !- Heating Maximum Air Flow Fraction
  No,                                     !- Account for Dedicated Outdoor Air System
  NeutralSupplyAir,                       !- Dedicated Outdoor Air System Control Strategy
  autosize,                               !- Dedicated Outdoor Air Low Setpoint Temperature for Design {C}
  autosize,                               !- Dedicated Outdoor Air High Setpoint Temperature for Design {C}
  Sensible Load Only No Latent Load,      !- Zone Load Sizing Method
  HumidityRatioDifference,                !- Zone Latent Cooling Design Supply Air Humidity Ratio Input Method
  ,                                       !- Zone Dehumidification Design Supply Air Humidity Ratio {kgWater/kgDryAir}
  0.005,                                  !- Zone Cooling Design Supply Air Humidity Ratio Difference {kgWater/kgDryAir}
  HumidityRatioDifference,                !- Zone Latent Heating Design Supply Air Humidity Ratio Input Method
  ,                                       !- Zone Humidification Design Supply Air Humidity Ratio {kgWater/kgDryAir}
  0.005;                                  !- Zone Humidification Design Supply Air Humidity Ratio Difference {kgWater/kgDryAir}

OS:ZoneHVAC:EquipmentList,
  {d1554ed1-ea39-4586-a6bc-dc97a81b4494}, !- Handle
  Zone HVAC Equipment List 2,             !- Name
  {5cef05d8-4a01-487c-81db-42ac4514fc55}; !- Thermal Zone

OS:AdditionalProperties,
  {9f79defd-2bd3-4539-9318-8ebd93a46467}, !- Handle
  {5cef05d8-4a01-487c-81db-42ac4514fc55}, !- Object Name
  ObjectType,                             !- Feature Name 1
  String,                                 !- Feature Data Type 1
  attic - vented;                         !- Feature Value 1

OS:Space,
  {263e1161-7dd3-4583-ba27-b84d3f8bca38}, !- Handle
  attic - vented 1,                       !- Name
  ,                                       !- Space Type Name
  ,                                       !- Default Construction Set Name
  ,                                       !- Default Schedule Set Name
  ,                                       !- Direction of Relative North {deg}
  ,                                       !- X Origin {m}
  ,                                       !- Y Origin {m}
  ,                                       !- Z Origin {m}
  ,                                       !- Building Story Name
  {5cef05d8-4a01-487c-81db-42ac4514fc55}, !- Thermal Zone Name
  ,                                       !- Part of Total Floor Area
  ,                                       !- Design Specification Outdoor Air Object Name
  {d8fca48b-eb0c-4ec8-b5d7-b70a390a7de9}, !- Building Unit Name
  80.9187811413394;                       !- Volume {m3}

OS:Material,
  {04b31772-6a25-4246-a059-2447c67cde08}, !- Handle
  slate or tile shingles,                 !- Name
  Rough,                                  !- Roughness
  0.01905,                                !- Thickness {m}
  0.8409775,                              !- Conductivity {W/m-K}
  1899.972,                               !- Density {kg/m3}
  799.717,                                !- Specific Heat {J/kg-K}
  0.9,                                    !- Thermal Absorptance
  0.75,                                   !- Solar Absorptance
  0.75;                                   !- Visible Absorptance

OS:Material,
  {30df9ba2-1b96-45c2-b5da-44146f3e36b6}, !- Handle
  roof rigid ins,                         !- Name
  Rough,                                  !- Roughness
  0.00329813704916861,                    !- Thickness {m}
  0.029427,                               !- Conductivity {W/m-K}
  32.04,                                  !- Density {kg/m3}
  1214.23,                                !- Specific Heat {J/kg-K}
  0.9,                                    !- Thermal Absorptance
  0.7,                                    !- Solar Absorptance
  0.7;                                    !- Visible Absorptance

OS:Material,
  {6cc0e62f-738d-4bd7-8887-71ec825ff272}, !- Handle
  osb sheathing 0.5 in.,                  !- Name
  Rough,                                  !- Roughness
  0.0127,                                 !- Thickness {m}
  0.1154577,                              !- Conductivity {W/m-K}
  512.64,                                 !- Density {kg/m3}
  1214.23,                                !- Specific Heat {J/kg-K}
  0.9,                                    !- Thermal Absorptance
  0.6,                                    !- Solar Absorptance
  0.6;                                    !- Visible Absorptance

OS:Construction,
  {de637ec2-3344-4ff1-84f1-788017d12de6}, !- Handle
  Roof1 construction,                     !- Name
  ,                                       !- Surface Rendering Name
  {04b31772-6a25-4246-a059-2447c67cde08}, !- Layer 1
  {30df9ba2-1b96-45c2-b5da-44146f3e36b6}, !- Layer 2
  {6cc0e62f-738d-4bd7-8887-71ec825ff272}; !- Layer 3

OS:Surface,