
OS:Version,
  {c8bbfe3f-56c7-473f-b197-f6dc5082631e}, !- Handle
  3.7.0;                                  !- Version Identifier

OS:WeatherFile,
  {e713c87c-9a30-4041-8307-3a58e49d924a}, !- Handle
  Aurora Buckley Field Angb,              !- City
  CO,                                     !- State Province Region
  USA,                                    !- Country
  TMY3,                                   !- Data Source
  724695,                                 !- WMO Number
  39.72,                                  !- Latitude {deg}
  -104.75,                                !- Longitude {deg}
  -7,                                     !- Time Zone {hr}
  1726,                                   !- Elevation {m}
  /weather/G0800310.epw,                  !- Url
  6108D70C,                               !- Checksum
  ,                                       !- Start Date Actual Year
  Sunday;                                 !- Start Day of Week

OS:YearDescription,
  {add5d216-7101-4729-afd4-0d11ab0c4096}, !- Handle
  2018,                                   !- Calendar Year
  ,                                       !- Day of Week for Start Day
  ;                                       !- Is Leap Year

OS:Site,
  {7fc84cae-24f9-4a07-9078-87408ff32bf5}, !- Handle
  Aurora Buckley Field Angb_CO_USA,       !- Name
  39.72,                                  !- Latitude {deg}
  -104.75,                                !- Longitude {deg}
  -7,                                     !- Time Zone {hr}
  1726,                                   !- Elevation {m}
  Suburbs;                                !- Terrain

OS:RunPeriodControl:DaylightSavingTime,
  {cb3c279e-6ce0-4d7d-a8c5-04953d9d5ff1}, !- Handle
  Mar 12,                                 !- Start Date
  Nov 5;                                  !- End Date

OS:Site:GroundTemperature:Shallow,
  {440af5b3-b73d-449b-9b9e-6780e017ec6e}, !- Handle
  5.74779807726293,                       !- January Surface Ground Temperature {C}
  3.93369421172941,                       !- February Surface Ground Temperature {C}
  3.78841426841401,                       !- March Surface Ground Temperature {C}
  4.64929924678728,                       !- April Surface Ground Temperature {C}
  8.10527271213475,                       !- May Surface Ground Temperature {C}
  11.5451467869795,                       !- June Surface Ground Temperature {C}
  14.5273337683838,                       !- July Surface Ground Temperature {C}
  16.4164758757094,                       !- August Surface Ground Temperature {C}
  16.5769688740467,                       !- September Surface Ground Temperature {C}
  15.0404692911898,                       !- October Surface Ground Temperature {C}
  12.1343298286974,                       !- November Surface Ground Temperature {C}
  8.79997707961545;                       !- December Surface Ground Temperature {C}

OS:SimulationControl,
  {3c4d0396-5e89-4b8d-9d16-588de16b6af2}, !- Handle
  ,                                       !- Do Zone Sizing Calculation
  ,                                       !- Do System Sizing Calculation
  ,                                       !- Do Plant Sizing Calculation
  No;                                     !- Run Simulation for Sizing Periods

OS:Timestep,
  {f8dd60c2-37c1-4d75-82a0-b5951c337f1e}, !- Handle
  4;                                      !- Number of Timesteps per Hour

OS:ShadowCalculation,
  {b6900407-e8b0-46e5-89e2-179d71b0fd07}, !- Handle
  PolygonClipping,                        !- Shading Calculation Method
  ,                                       !- Shading Calculation Update Frequency Method
  20,                                     !- Shading Calculation Update Frequency
  200,                                    !- Maximum Figures in Shadow Overlap Calculations
  ,                                       !- Polygon Clipping Algorithm
  512,                                    !- Pixel Counting Resolution
  ,                                       !- Sky Diffuse Modeling Algorithm
  No,                                     !- Output External Shading Calculation Results
  No,                                     !- Disable Self-Shading Within Shading Zone Groups
  No;                                     !- Disable Self-Shading From Shading Zone Groups to Other Zones

OS:SurfaceConvectionAlgorithm:Outside,
  {35bd182f-7008-42ca-818a-034179a3f794}, !- Handle
  DOE-2;                                  !- Algorithm

OS:SurfaceConvectionAlgorithm:Inside,
  {1774aaf7-5535-4768-bdd9-d835471ca09e}, !- Handle
  TARP;                                   !- Algorithm

OS:ZoneCapacitanceMultiplier:ResearchSpecial,
  {71945f78-2cff-4698-970b-d702aa0c02e5}, !- Handle
  1,                                      !- Temperature Capacity Multiplier
  15,                                     !- Humidity Capacity Multiplier
  ;                                       !- Carbon Dioxide Capacity Multiplier

OS:ConvergenceLimits,
  {b22c7a21-904a-483a-85b9-81e4eb601fcb}, !- Handle
  0;                                      !- Minimum System Timestep {minutes}

OS:RunPeriod,
  {d3ae34e8-127a-460b-8e6e-dcce6bf1003d}, !- Handle
  Run Period 1,                           !- Name
  1,                                      !- Begin Month
  1,                                      !- Begin Day of Month
  12,                                     !- End Month
  31,                                     !- End Day of Month
  ,                                       !- Use Weather File Holidays and Special Days
  ,                                       !- Use Weather File Daylight Saving Period
  ,                                       !- Apply Weekend Holiday Rule
  ,                                       !- Use Weather File Rain Indicators
  ,                                       !- Use Weather File Snow Indicators
  ;                                       !- Number of Times Runperiod to be Repeated

OS:PerformancePrecisionTradeoffs,
  {0d1a4357-4568-47fa-bbbe-022854abb3dd}, !- Handle
  ,                                       !- Use Coil Direct Solutions
  CarrollMRT;                             !- Zone Radiant Exchange Algorithm

OS:ThermalZone,
  {074a33e4-4935-40c1-a5d8-1b3ae073d2ec}, !- Handle
  conditioned space,                      !- Name
  1,                                      !- Multiplier
  ,                                       !- Ceiling Height {m}
  384.656044105728,                       !- Volume {m3}
  ,                                       !- Floor Area {m2}
  ,                                       !- Zone Inside Convection Algorithm
  ,                                       !- Zone Outside Convection Algorithm
  ,                                       !- Zone Conditioning Equipment List Name
  {883d12bd-466d-48c3-988a-2cbe0fa65b5f}, !- Zone Air Inlet Port List
  {a4bc09b7-375e-4e89-9e38-f1fb0b51c470}, !- Zone Air Exhaust Port List
  {66ed94ed-8865-4b12-ac9b-c6e81a73d8b5}, !- Zone Air Node Name
  {da22f474-7519-4253-9116-89f88f998131}, !- Zone Return Air Port List
  ,                                       !- Primary Daylighting Control Name
  ,                                       !- Fraction of Zone Controlled by Primary Daylighting Control
  ,                                       !- Secondary Daylighting Control Name
  ,                                       !- Fraction of Zone Controlled by Secondary Daylighting Control
  ,                                       !- Illuminance Map Name
  ,                                       !- Group Rendering Name
  {5d5d1aeb-6c84-4feb-b1ef-caa12a5042f8}, !- Thermostat Name
  No;                                     !- Use Ideal Air Loads

OS:Node,
  {5acd86f3-47b7-4274-b7b4-29f83a10c020}, !- Handle
  Node 1,                                 !- Name
  {66ed94ed-8865-4b12-ac9b-c6e81a73d8b5}, !- Inlet Port
  ;                                       !- Outlet Port

OS:Connection,
  {66ed94ed-8865-4b12-ac9b-c6e81a73d8b5}, !- Handle
  {074a33e4-4935-40c1-a5d8-1b3ae073d2ec}, !- Source Object
  11,                                     !- Outlet Port
  {5acd86f3-47b7-4274-b7b4-29f83a10c020}, !- Target Object
  2;                                      !- Inlet Port

OS:PortList,
  {883d12bd-466d-48c3-988a-2cbe0fa65b5f}, !- Handle
  {074a33e4-4935-40c1-a5d8-1b3ae073d2ec}, !- HVAC Component
  {8f60d21d-2db9-402b-a056-803af03bf911}; !- Port 1

OS:PortList,
  {a4bc09b7-375e-4e89-9e38-f1fb0b51c470}, !- Handle
  {074a33e4-4935-40c1-a5d8-1b3ae073d2ec}; !- HVAC Component

OS:PortList,
  {da22f474-7519-4253-9116-89f88f998131}, !- Handle
  {074a33e4-4935-40c1-a5d8-1b3ae073d2ec}, !- HVAC Component
  {55c5c3ac-0453-4e7b-b5c6-b1016c9ec5ca}; !- Port 1

OS:Sizing:Zone,
  {4b12fdd2-3036-4e34-bcc0-6b5722f4220a}, !- Handle
  {074a33e4-4935-40c1-a5d8-1b3ae073d2ec}, !- Zone or ZoneList Name
  SupplyAirTemperature,                   !- Zone Cooling Design Supply Air Temperature Input Method
  14,                                     !- Zone Cooling Design Supply Air Temperature {C}
  11.11,                                  !- Zone Cooling Design Supply Air Temperature Difference {deltaC}
  SupplyAirTemperature,                   !- Zone Heating Design Supply Air Temperature Input Method
  40,                                     !- Zone Heating Design Supply Air Temperature {C}
  11.11,                                  !- Zone Heating Design Supply Air Temperature Difference {deltaC}
  0.0085,                                 !- Zone Cooling Design Supply Air Humidity Ratio {kg-H2O/kg-air}
  0.008,                                  !- Zone Heating Design Supply Air Humidity Ratio {kg-H2O/kg-air}
  ,                                       !- Zone Heating Sizing Factor
  ,                                       !- Zone Cooling Sizing Factor
  DesignDay,                              !- Cooling Design Air Flow Method
  ,                                       !- Cooling Design Air Flow Rate {m3/s}
  ,                                       !- Cooling Minimum Air Flow per Zone Floor Area {m3/s-m2}
  ,                                       !- Cooling Minimum Air Flow {m3/s}
  ,                                       !- Cooling Minimum Air Flow Fraction
  DesignDay,                              !- Heating Design Air Flow Method
  ,                                       !- Heating Design Air Flow Rate {m3/s}
  ,                                       !- Heating Maximum Air Flow per Zone Floor Area {m3/s-m2}
  ,                                       !- Heating Maximum Air Flow {m3/s}
  ,                                       !- Heating Maximum Air Flow Fraction
  No,                                     !- Account for Dedicated Outdoor Air System
  NeutralSupplyAir,                       !- Dedicated Outdoor Air System Control Strategy
  autosize,                               !- Dedicated Outdoor Air Low Setpoint Temperature for Design {C}
  autosize,                               !- Dedicated Outdoor Air High Setpoint Temperature for Design {C}
  Sensible Load Only No Latent Load,      !- Zone Load Sizing Method
  HumidityRatioDifference,                !- Zone Latent Cooling Design Supply Air Humidity Ratio Input Method
  ,                                       !- Zone Dehumidification Design Supply Air Humidity Ratio {kgWater/kgDryAir}
  0.005,                                  !- Zone Cooling Design Supply Air Humidity Ratio Difference {kgWater/kgDryAir}
  HumidityRatioDifference,                !- Zone Latent Heating Design Supply Air Humidity Ratio Input Method
  ,                                       !- Zone Humidification Design Supply Air Humidity Ratio {kgWater/kgDryAir}
  0.005;                                  !- Zone Humidification Design Supply Air Humidity Ratio Difference {kgWater/kgDryAir}

OS:ZoneHVAC:EquipmentList,
  {6f40d115-b1f1-44ac-b377-4b4d8e39ec26}, !- Handle
  Zone HVAC Equipment List 1,             !- Name
  {074a33e4-4935-40c1-a5d8-1b3ae073d2ec}, !- Thermal Zone
  ,                                       !- Load Distribution Scheme
  {1a4388db-c783-4f98-a7ba-686b0fdefbca}, !- Zone Equipment 1
  1,                                      !- Zone Equipment Cooling Sequence 1
  1,                                      !- Zone Equipment Heating or No-Load Sequence 1
  {4794105d-2020-4015-8f73-1f0f4c58c743}, !- Zone Equipment Sequential Cooling Fraction Schedule Name 1
  {cc52e005-5a23-4dd9-a420-5f3685dff916}; !- Zone Equipment Sequential Heating Fraction Schedule Name 1

OS:AdditionalProperties,
  {a4b0b142-369c-4c94-9085-b72aa259f6ef}, !- Handle
  {074a33e4-4935-40c1-a5d8-1b3ae073d2ec}, !- Object Name
  ObjectType,                             !- Feature Name 1
  String,                                 !- Feature Data Type 1
  conditioned space;                      !- Feature Value 1

OS:Space,
  {0a5dfda4-ae9c-4717-8c12-c6403b2d3376}, !- Handle
  conditioned space 1,                    !- Name
  ,                                       !- Space Type Name
  ,                                       !- Default Construction Set Name
  ,                                       !- Default Schedule Set Name
  ,                                       !- Direction of Relative North {deg}
  ,                                       !- X Origin {m}
  ,                                       !- Y Origin {m}
  ,                                       !- Z Origin {m}
  ,                                       !- Building Story Name
  {074a33e4-4935-40c1-a5d8-1b3ae073d2ec}, !- Thermal Zone Name
  ,                                       !- Part of Total Floor Area
  ,                                       !- Design Specification Outdoor Air Object Name
  {375d770c-d23d-4b1e-90dc-70d5ac0b5d1a}, !- Building Unit Name
  384.656044105728;                       !- Volume {m3}

OS:Schedule:Ruleset,
  {e0b810e4-4da1-4b7d-9dc5-77f7174dae80}, !- Handle
  heating setpoint,                       !- Name
  {00d656e0-e0a2-4c6a-a541-e34ec5970c78}, !- Schedule Type Limits Name
  {3b05d695-bff7-4c5b-a4c1-dbe1b4649625}; !- Default Day Schedule Name

OS:Schedule:Day,
  {3b05d695-bff7-4c5b-a4c1-dbe1b4649625}, !- Handle
  heating setpoint default day,           !- Name
  {00d656e0-e0a2-4c6a-a541-e34ec5970c78}, !- Schedule Type Limits Name
  ,                                       !- Interpolate to Timestep
  24,                                     !- Hour 1
  0,                                      !- Minute 1
  0;                                      !- Value Until Time 1

OS:Schedule:Rule,
  {b75e8902-87e1-4b45-809a-03e06a4f363f}, !- Handle
  heating setpoint allday ruleset1,       !- Name
  {e0b810e4-4da1-4b7d-9dc5-77f7174dae80}, !- Schedule Ruleset Name
  0,                                      !- Rule Order
  {33927f43-662e-4530-991c-9a2f6d4e70c3}, !- Day Schedule Name
  Yes,                                    !- Apply Sunday
  Yes,                                    !- Apply Monday
  Yes,                                    !- Apply Tuesday
  Yes,                                    !- Apply Wednesday
  Yes,                                    !- Apply Thursday
  Yes,                                    !- Apply Friday
  Yes,                                    !- Apply Saturday
  DateRange,                              !- Date Specification Type
  1,                                      !- Start Month
  1,                                      !- Start Day
  12,                                     !- End Month
  31;                                     !- End Day

OS:Schedule:Day,
  {33927f43-662e-4530-991c-9a2f6d4e70c3}, !- Handle
  heating setpoint allday1,               !- Name
  {00d656e0-e0a2-4c6a-a541-e34ec5970c78}, !- Schedule Type Limits Name
  ,                                       !- Interpolate to Timestep
  24,                                     !- Hour 1
  0,                                      !- Minute 1
  21.1111111111111;                       !- Value Until Time 1

OS:Schedule:Ruleset,
  {96cc3b35-1f82-4e0c-a4ad-bdeb2f02d2f0}, !- Handle
  cooling setpoint,                       !- Name
  {00d656e0-e0a2-4c6a-a541-e34ec5970c78}, !- Schedule Type Limits Name
  {dad3516e-a34a-4835-b7f9-cd5864b54a57}; !- Default Day Schedule Name

OS:Schedule:Day,
  {dad3516e-a34a-4835-b7f9-cd5864b54a57}, !- Handle
  cooling setpoint default day,           !- Name
  {00d656e0-e0a2-4c6a-a541-e34ec5970c78}, !- Schedule Type Limits Name
  ,                                       !- Interpolate to Timestep
  24,                                     !- Hour 1
  0,                                      !- Minute 1
  0;                                      !- Value Until Time 1

OS:Schedule:Rule,
  {d1d55010-6a95-41b6-9bb5-db8a8b225416}, !- Handle
  cooling setpoint allday ruleset1,       !- Name
  {96cc3b35-1f82-4e0c-a4ad-bdeb2f02d2f0}, !- Schedule Ruleset Name
  0,                                      !- Rule Order
  {908c9e48-2408-4262-a515-af335fdd8200}, !- Day Schedule Name
  Yes,                                    !- Apply Sunday
  Yes,                                    !- Apply Monday
  Yes,                                    !- Apply Tuesday
  Yes,                                    !- Apply Wednesday
  Yes,                                    !- Apply Thursday
  Yes,                                    !- Apply Friday
  Yes,                                    !- Apply Saturday
  DateRange,                              !- Date Specification Type
  1,                                      !- Start Month
  1,                                      !- Start Day
  12,                                     !- End Month
  31;                                     !- End Day

OS:Schedule:Day,
  {908c9e48-2408-4262-a515-af335fdd8200}, !- Handle
  cooling setpoint allday1,               !- Name
  {00d656e0-e0a2-4c6a-a541-e34ec5970c78}, !- Schedule Type Limits Name
  ,                                       !- Interpolate to Timestep
  24,                                     !- Hour 1
  0,                                      !- Minute 1
  21.1111111111111;                       !- Value Until Time 1

OS:ThermostatSetpoint:DualSetpoint,
  {5d5d1aeb-6c84-4feb-b1ef-caa12a5042f8}, !- Handle
  conditioned space temperature setpoint, !- Name
  {e0b810e4-4da1-4b7d-9dc5-77f7174dae80}, !- Heating Setpoint Temperature Schedule Name
  {96cc3b35-1f82-4e0c-a4ad-bdeb2f02d2f0}; !- Cooling Setpoint Temperature Schedule Name

OS:ScheduleTypeLimits,
  {00d656e0-e0a2-4c6a-a541-e34ec5970c78}, !- Handle
  Temperature,                            !- Name
  ,                                       !- Lower Limit Value
  ,                                       !- Upper Limit Value
  Continuous,                             !- Numeric Type
  Temperature;                            !- Unit Type

OS:Surface,
  {3dc70344-7745-4a22-9601-e098598af800}, !- Handle
  Roof1,                                  !- Name
  RoofCeiling,                            !- Surface Type
  {6775c99c-3e7d-4f9d-8c08-ce5007da3469}, !- Construction Name
  {4fc0dff1-700f-4ce1-8c3c-9260475dbf7f}, !- Space Name
  Outdoors,                               !- Outside Boundary Condition
  ,                                       !- Outside Boundary Condition Object
  SunExposed,                             !- Sun Exposure
  WindExposed,                            !- Wind Exposure
  ,                                       !- View Factor to Ground
  ,                                       !- Number of Vertices
  13.7571187551506, 30.945528152087, 5.1816, !- X,Y,Z Vertex 1 {m}
  9.5575099852883, 26.7459195504081, 8.15117178003833, !- X,Y,Z Vertex 2 {m}
  14.2528151414118, 22.0506142062499, 8.15117178003833, !- X,Y,Z Vertex 3 {m}
  18.4524239112741, 26.2502228079289, 5.1816; !- X,Y,Z Vertex 4 {m}

OS:AdditionalProperties,
  {54cb6678-dea8-4137-89fb-a2a731357999}, !- Handle
  {3dc70344-7745-4a22-9601-e098598af800}, !- Object Name
  Length,                                 !- Feature Name 1
  Double,                                 !- Feature Data Type 1
  21.785316155612705,                     !- Feature Value 1
  Width,                                  !- Feature Name 2
  Double,                                 !- Feature Data Type 2
  21.785316155612708,                     !- Feature Value 2
  Azimuth,                                !- Feature Name 3
  Integer,                                !- Feature Data Type 3
  45,                                     !- Feature Value 3
  Tilt,                                   !- Feature Name 4
  Double,                                 !- Feature Data Type 4
  0.5,                                    !- Feature Value 4
  SurfaceType,                            !- Feature Name 5
  String,                                 !- Feature Data Type 5
  Roof;                                   !- Feature Value 5

OS:ThermalZone,
  {2b1667f6-8956-447d-bd09-03072a4ff0c8}, !- Handle
  attic - vented,                         !- Name
  1,                                      !- Multiplier
  ,                                       !- Ceiling Height {m}
  80.9187811413394,                       !- Volume {m3}
  ,                                       !- Floor Area {m2}
  ,                                       !- Zone Inside Convection Algorithm
  ,                                       !- Zone Outside Convection Algorithm
  ,                                       !- Zone Conditioning Equipment List Name
  {05b3426a-e62e-46a5-ba1f-0530394862c6}, !- Zone Air Inlet Port List
  {d4529645-f723-4bf6-8bf0-d33c14949739}, !- Zone Air Exhaust Port List
  {2ea7d360-8f11-4a64-9862-fa3efdc6c1ab}, !- Zone Air Node Name
  {d0138c7a-319e-42d7-89da-1f2627a3094d}, !- Zone Return Air Port List
  ,                                       !- Primary Daylighting Control Name
  ,                                       !- Fraction of Zone Controlled by Primary Daylighting Control
  ,                                       !- Secondary Daylighting Control Name
  ,                                       !- Fraction of Zone Controlled by Secondary Daylighting Control
  ,                                       !- Illuminance Map Name
  ,                                       !- Group Rendering Name
  ,                                       !- Thermostat Name
  No;                                     !- Use Ideal Air Loads

OS:Node,
  {8e6a95da-a4b6-4ab9-9195-224fc99ce2e8}, !- Handle
  Node 2,                                 !- Name
  {2ea7d360-8f11-4a64-9862-fa3efdc6c1ab}, !- Inlet Port
  ;                                       !- Outlet Port

OS:Connection,
  {2ea7d360-8f11-4a64-9862-fa3efdc6c1ab}, !- Handle
  {2b1667f6-8956-447d-bd09-03072a4ff0c8}, !- Source Object
  11,                                     !- Outlet Port
  {8e6a95da-a4b6-4ab9-9195-224fc99ce2e8}, !- Target Object
  2;                                      !- Inlet Port

OS:PortList,
  {05b3426a-e62e-46a5-ba1f-0530394862c6}, !- Handle
  {2b1667f6-8956-447d-bd09-03072a4ff0c8}; !- HVAC Component

OS:PortList,
  {d4529645-f723-4bf6-8bf0-d33c14949739}, !- Handle
  {2b1667f6-8956-447d-bd09-03072a4ff0c8}; !- HVAC Component

OS:PortList,
  {d0138c7a-319e-42d7-89da-1f2627a3094d}, !- Handle
  {2b1667f6-8956-447d-bd09-03072a4ff0c8}; !- HVAC Component

OS:Sizing:Zone,
  {94b96e7b-aaa2-43ee-9793-9272eab21b6a}, !- Handle
  {2b1667f6-8956-447d-bd09-03072a4ff0c8}, !- Zone or ZoneList Name
  SupplyAirTemperature,                   !- Zone Cooling Design Supply Air Temperature Input Method
  14,                                     !- Zone Cooling Design Supply Air Temperature {C}
  11.11,                                  !- Zone Cooling Design Supply Air Temperature Difference {deltaC}
  SupplyAirTemperature,                   !- Zone Heating Design Supply Air Temperature Input Method
  40,                                     !- Zone Heating Design Supply Air Temperature {C}
  11.11,                                  !- Zone Heating Design Supply Air Temperature Difference {deltaC}
  0.0085,                                 !- Zone Cooling Design Supply Air Humidity Ratio {kg-H2O/kg-air}
  0.008,                                  !- Zone Heating Design Supply Air Humidity Ratio {kg-H2O/kg-air}
  ,                                       !- Zone Heating Sizing Factor
  ,                                       !- Zone Cooling Sizing Factor
  DesignDay,                              !- Cooling Design Air Flow Method
  ,                                       !- Cooling Design Air Flow Rate {m3/s}
  ,                                       !- Cooling Minimum Air Flow per Zone Floor Area {m3/s-m2}
  ,                                       !- Cooling Minimum Air Flow {m3/s}
  ,                                       !- Cooling Minimum Air Flow Fraction
  DesignDay,                              !- Heating Design Air Flow Method
  ,                                       !- Heating Design Air Flow Rate {m3/s}
  ,                                       !- Heating Maximum Air Flow per Zone Floor Area {m3/s-m2}
  ,                                       !- Heating Maximum Air Flow {m3/s}
  ,                                       !- Heating Maximum Air Flow Fraction
  No,                                     !- Account for Dedicated Outdoor Air System
  NeutralSupplyAir,                       !- Dedicated Outdoor Air System Control Strategy
  autosize,                               !- Dedicated Outdoor Air Low Setpoint Temperature for Design {C}
  autosize,                               !- Dedicated Outdoor Air High Setpoint Temperature for Design {C}
  Sensible Load Only No Latent Load,      !- Zone Load Sizing Method
  HumidityRatioDifference,                !- Zone Latent Cooling Design Supply Air Humidity Ratio Input Method
  ,                                       !- Zone Dehumidification Design Supply Air Humidity Ratio {kgWater/kgDryAir}
  0.005,                                  !- Zone Cooling Design Supply Air Humidity Ratio Difference {kgWater/kgDryAir}
  HumidityRatioDifference,                !- Zone Latent Heating Design Supply Air Humidity Ratio Input Method
  ,                                       !- Zone Humidification Design Supply Air Humidity Ratio {kgWater/kgDryAir}
  0.005;                                  !- Zone Humidification Design Supply Air Humidity Ratio Difference {kgWater/kgDryAir}

OS:ZoneHVAC:EquipmentList,
  {01d41c2d-8997-47ed-ba6b-09dbd6f83e80}, !- Handle
  Zone HVAC Equipment List 2,             !- Name
  {2b1667f6-8956-447d-bd09-03072a4ff0c8}; !- Thermal Zone

OS:AdditionalProperties,
  {7c7cb0f2-d7f2-49fc-a284-2489d094bfcf}, !- Handle
  {2b1667f6-8956-447d-bd09-03072a4ff0c8}, !- Object Name
  ObjectType,                             !- Feature Name 1
  String,                                 !- Feature Data Type 1
  attic - vented;                         !- Feature Value 1

OS:Space,
  {4fc0dff1-700f-4ce1-8c3c-9260475dbf7f}, !- Handle
  attic - vented 1,                       !- Name
  ,                                       !- Space Type Name
  ,                                       !- Default Construction Set Name
  ,                                       !- Default Schedule Set Name
  ,                                       !- Direction of Relative North {deg}
  ,                                       !- X Origin {m}
  ,                                       !- Y Origin {m}
  ,                                       !- Z Origin {m}
  ,                                       !- Building Story Name
  {2b1667f6-8956-447d-bd09-03072a4ff0c8}, !- Thermal Zone Name
  ,                                       !- Part of Total Floor Area
  ,                                       !- Design Specification Outdoor Air Object Name
  {375d770c-d23d-4b1e-90dc-70d5ac0b5d1a}, !- Building Unit Name
  80.9187811413394;                       !- Volume {m3}

OS:Material,
  {eb2492df-f0a6-49dc-af1b-223130b43b50}, !- Handle
  slate or tile shingles,                 !- Name
  Rough,                                  !- Roughness
  0.01905,                                !- Thickness {m}
  0.8409775,                              !- Conductivity {W/m-K}
  1899.972,                               !- Density {kg/m3}
  799.717,                                !- Specific Heat {J/kg-K}
  0.9,                                    !- Thermal Absorptance
  0.75,                                   !- Solar Absorptance
  0.75;                                   !- Visible Absorptance

OS:Material,
  {b84820fa-eef0-41bc-bc5a-67e335d1fafc}, !- Handle
  roof rigid ins,                         !- Name
  Rough,                                  !- Roughness
  0.00329813704916861,                    !- Thickness {m}
  0.029427,                               !- Conductivity {W/m-K}
  32.04,                                  !- Density {kg/m3}
  1214.23,                                !- Specific Heat {J/kg-K}
  0.9,                                    !- Thermal Absorptance
  0.7,                                    !- Solar Absorptance
  0.7;                                    !- Visible Absorptance

OS:Material,
  {87fba520-d793-4837-b4ce-3a3f598d4209}, !- Handle
  osb sheathing 0.5 in.,                  !- Name
  Rough,                                  !- Roughness
  0.0127,                                 !- Thickness {m}
  0.1154577,                              !- Conductivity {W/m-K}
  512.64,                                 !- Density {kg/m3}
  1214.23,                                !- Specific Heat {J/kg-K}
  0.9,                                    !- Thermal Absorptance
  0.6,                                    !- Solar Absorptance
  0.6;                                    !- Visible Absorptance

OS:Construction,
  {6775c99c-3e7d-4f9d-8c08-ce5007da3469}, !- Handle
  Roof1 construction,                     !- Name
  ,                                       !- Surface Rendering Name
  {eb2492df-f0a6-49dc-af1b-223130b43b50}, !- Layer 1
  {b84820fa-eef0-41bc-bc5a-67e335d1fafc}, !- Layer 2
  {87fba520-d793-4837-b4ce-3a3f598d4209}; !- Layer 3

OS:Surface,