clear
new Circuit.source phases=3 bus1=sourcebus basekv=115.000 pu=1.00000 angle=30.00000 r0=0.17960 x0=0.53881 r1=0.16038 x1=0.64151





new Linecode.1p_ug_code4 nphases=1 units=mi rmatrix=[0.405129 ] xmatrix=[0.410707 ] cmatrix=[3.65361 ]
new Linecode.2p_code10 nphases=2 units=mi rmatrix=[0.139473 | 0.0467855 0.140661 ] xmatrix=[0.328565 | 0.117314 0.324634 ] cmatrix=[4.13553 | -0.852831 4.17999 ]
new Linecode.2p_oh_code0 nphases=2 units=mi rmatrix=[0.139473 | 0.0467855 0.140661 ] xmatrix=[0.328565 | 0.117314 0.324634 ] cmatrix=[4.13553 | -0.852831 4.17999 ]
new Linecode.3p_oh_code6 nphases=3 units=mi rmatrix=[0.139473 | 0.0475475 0.142216 | 0.0467855 0.0481571 0.140661 ] xmatrix=[0.328565 | 0.152914 0.319483 | 0.117314 0.129110 0.324634 ] cmatrix=[4.58915 | -1.48099 4.83524 | -0.564458 -0.941436 4.36327 ]
new Linecode.3p_oh_code1 nphases=3 units=mi rmatrix=[0.139473 | 0.0475475 0.142216 | 0.0467855 0.0481571 0.140661 ] xmatrix=[0.328565 | 0.152914 0.319483 | 0.117314 0.129110 0.324634 ] cmatrix=[4.58915 | -1.48099 4.83524 | -0.564458 -0.941436 4.36327 ]
new Linecode.3p_ug_code5 nphases=3 units=mi rmatrix=[0.139473 | 0.0475475 0.142216 | 0.0467855 0.0481571 0.140661 ] xmatrix=[0.328565 | 0.152914 0.319483 | 0.117314 0.129110 0.324634 ] cmatrix=[4.58915 | -1.48099 4.83524 | -0.564458 -0.941436 4.36327 ]
new Linecode.1p_oh_code3 nphases=1 units=mi rmatrix=[0.405129 ] xmatrix=[0.410707 ] cmatrix=[3.65361 ]
new Linecode.1p_oh_code9 nphases=1 units=mi rmatrix=[0.405129 ] xmatrix=[0.410707 ] cmatrix=[3.65361 ]
new Linecode.1p_oh_code8 nphases=1 units=mi rmatrix=[0.405129 ] xmatrix=[0.410707 ] cmatrix=[3.65361 ]
new Linecode.2p_oh_code2 nphases=2 units=mi rmatrix=[0.139473 | 0.0467855 0.140661 ] xmatrix=[0.328565 | 0.117314 0.324634 ] cmatrix=[4.13553 | -0.852831 4.17999 ]


new Xfmrcode.cimxfmrcode_xfmr_611_c_2 windings=3 phases=1 xhl=2.040000 xht=2.040000 xlt=0.680000 %imag=0.000 %noloadloss=0.000
~ wdg=1 conn=w kv=2.400 kva=40.0 %r=0.003000
~ wdg=2 conn=w kv=0.120 kva=20.0 %r=0.003000
~ wdg=3 conn=w kv=0.120 kva=20.0 %r=0.003000
new Xfmrcode.cimxfmrcode_xfmr_684_c_2 windings=3 phases=1 xhl=2.040000 xht=2.040000 xlt=0.680000 %imag=0.000 %noloadloss=0.000
~ wdg=1 conn=w kv=2.400 kva=40.0 %r=0.003000
~ wdg=2 conn=w kv=0.120 kva=20.0 %r=0.003000
~ wdg=3 conn=w kv=0.120 kva=20.0 %r=0.003000
new Xfmrcode.cimxfmrcode_xfmr_611_c_1 windings=3 phases=1 xhl=2.040000 xht=2.040000 xlt=0.680000 %imag=0.000 %noloadloss=0.000
~ wdg=1 conn=w kv=2.400 kva=40.0 %r=0.003000
~ wdg=2 conn=w kv=0.120 kva=20.0 %r=0.003000
~ wdg=3 conn=w kv=0.120 kva=20.0 %r=0.003000
new Xfmrcode.cimxfmrcode_xfmr_684_c_1 windings=3 phases=1 xhl=2.040000 xht=2.040000 xlt=0.680000 %imag=0.000 %noloadloss=0.000
~ wdg=1 conn=w kv=2.400 kva=40.0 %r=0.003000
~ wdg=2 conn=w kv=0.120 kva=20.0 %r=0.003000
~ wdg=3 conn=w kv=0.120 kva=20.0 %r=0.003000
new Xfmrcode.cimxfmrcode_xfmr_611_c_4 windings=3 phases=1 xhl=2.040000 xht=2.040000 xlt=0.680000 %imag=0.000 %noloadloss=0.000
~ wdg=1 conn=w kv=2.400 kva=40.0 %r=0.003000
~ wdg=2 conn=w kv=0.120 kva=20.0 %r=0.003000
~ wdg=3 conn=w kv=0.120 kva=20.0 %r=0.003000
new Xfmrcode.cimxfmrcode_xfmr_671_a_5 windings=3 phases=1 xhl=2.040000 xht=2.040000 xlt=0.680000 %imag=0.000 %noloadloss=0.000
~ wdg=1 conn=w kv=2.400 kva=40.0 %r=0.003000
~ wdg=2 conn=w kv=0.120 kva=20.0 %r=0.003000
~ wdg=3 conn=w kv=0.120 kva=20.0 %r=0.003000
new Xfmrcode.cimxfmrcode_xfmr_684_c_4 windings=3 phases=1 xhl=2.040000 xht=2.040000 xlt=0.680000 %imag=0.000 %noloadloss=0.000
~ wdg=1 conn=w kv=2.400 kva=40.0 %r=0.003000
~ wdg=2 conn=w kv=0.120 kva=20.0 %r=0.003000
~ wdg=3 conn=w kv=0.120 kva=20.0 %r=0.003000
new Xfmrcode.cimxfmrcode_xfmr_611_c_3 windings=3 phases=1 xhl=2.040000 xht=2.040000 xlt=0.680000 %imag=0.000 %noloadloss=0.000
~ wdg=1 conn=w kv=2.400 kva=40.0 %r=0.003000
~ wdg=2 conn=w kv=0.120 kva=20.0 %r=0.003000
~ wdg=3 conn=w kv=0.120 kva=20.0 %r=0.003000
new Xfmrcode.cimxfmrcode_xfmr_684_c_3 windings=3 phases=1 xhl=2.040000 xht=2.040000 xlt=0.680000 %imag=0.000 %noloadloss=0.000
~ wdg=1 conn=w kv=2.400 kva=40.0 %r=0.003000
~ wdg=2 conn=w kv=0.120 kva=20.0 %r=0.003000
~ wdg=3 conn=w kv=0.120 kva=20.0 %r=0.003000
new Xfmrcode.cimxfmrcode_xfmr_633_b_4 windings=3 phases=1 xhl=2.040000 xht=2.040000 xlt=0.680000 %imag=0.000 %noloadloss=0.000
~ wdg=1 conn=w kv=2.400 kva=40.0 %r=0.003000
~ wdg=2 conn=w kv=0.120 kva=20.0 %r=0.003000
~ wdg=3 conn=w kv=0.120 kva=20.0 %r=0.003000
new Xfmrcode.cimxfmrcode_xfmr_671_a_3 windings=3 phases=1 xhl=2.040000 xht=2.040000 xlt=0.680000 %imag=0.000 %noloadloss=0.000
~ wdg=1 conn=w kv=2.400 kva=40.0 %r=0.003000
~ wdg=2 conn=w kv=0.120 kva=20.0 %r=0.003000
~ wdg=3 conn=w kv=0.120 kva=20.0 %r=0.003000
new Xfmrcode.cimxfmrcode_xfmr_611_c_5 windings=3 phases=1 xhl=2.040000 xht=2.040000 xlt=0.680000 %imag=0.000 %noloadloss=0.000
~ wdg=1 conn=w kv=2.400 kva=40.0 %r=0.003000
~ wdg=2 conn=w kv=0.120 kva=20.0 %r=0.003000
~ wdg=3 conn=w kv=0.120 kva=20.0 %r=0.003000
new Xfmrcode.cimxfmrcode_xfmr_633_b_5 windings=3 phases=1 xhl=2.040000 xht=2.040000 xlt=0.680000 %imag=0.000 %noloadloss=0.000
~ wdg=1 conn=w kv=2.400 kva=40.0 %r=0.003000
~ wdg=2 conn=w kv=0.120 kva=20.0 %r=0.003000
~ wdg=3 conn=w kv=0.120 kva=20.0 %r=0.003000
new Xfmrcode.cimxfmrcode_xfmr_671_a_4 windings=3 phases=1 xhl=2.040000 xht=2.040000 xlt=0.680000 %imag=0.000 %noloadloss=0.000
~ wdg=1 conn=w kv=2.400 kva=40.0 %r=0.003000
~ wdg=2 conn=w kv=0.120 kva=20.0 %r=0.003000
~ wdg=3 conn=w kv=0.120 kva=20.0 %r=0.003000
new Xfmrcode.cimxfmrcode_xfmr_633_b_2 windings=3 phases=1 xhl=2.040000 xht=2.040000 xlt=0.680000 %imag=0.000 %noloadloss=0.000
~ wdg=1 conn=w kv=2.400 kva=40.0 %r=0.003000
~ wdg=2 conn=w kv=0.120 kva=20.0 %r=0.003000
~ wdg=3 conn=w kv=0.120 kva=20.0 %r=0.003000
new Xfmrcode.cimxfmrcode_xfmr_671_a_1 windings=3 phases=1 xhl=2.040000 xht=2.040000 xlt=0.680000 %imag=0.000 %noloadloss=0.000
~ wdg=1 conn=w kv=2.400 kva=40.0 %r=0.003000
~ wdg=2 conn=w kv=0.120 kva=20.0 %r=0.003000
~ wdg=3 conn=w kv=0.120 kva=20.0 %r=0.003000
new Xfmrcode.cimxfmrcode_xfmr_633_b_3 windings=3 phases=1 xhl=2.040000 xht=2.040000 xlt=0.680000 %imag=0.000 %noloadloss=0.000
~ wdg=1 conn=w kv=2.400 kva=40.0 %r=0.003000
~ wdg=2 conn=w kv=0.120 kva=20.0 %r=0.003000
~ wdg=3 conn=w kv=0.120 kva=20.0 %r=0.003000
new Xfmrcode.cimxfmrcode_xfmr_671_a_2 windings=3 phases=1 xhl=2.040000 xht=2.040000 xlt=0.680000 %imag=0.000 %noloadloss=0.000
~ wdg=1 conn=w kv=2.400 kva=40.0 %r=0.003000
~ wdg=2 conn=w kv=0.120 kva=20.0 %r=0.003000
~ wdg=3 conn=w kv=0.120 kva=20.0 %r=0.003000
new Xfmrcode.cimxfmrcode_xfmr_633_b_1 windings=3 phases=1 xhl=2.040000 xht=2.040000 xlt=0.680000 %imag=0.000 %noloadloss=0.000
~ wdg=1 conn=w kv=2.400 kva=40.0 %r=0.003000
~ wdg=2 conn=w kv=0.120 kva=20.0 %r=0.003000
~ wdg=3 conn=w kv=0.120 kva=20.0 %r=0.003000
new Xfmrcode.cimxfmrcode_xfmr_684_c_5 windings=3 phases=1 xhl=2.040000 xht=2.040000 xlt=0.680000 %imag=0.000 %noloadloss=0.000
~ wdg=1 conn=w kv=2.400 kva=40.0 %r=0.003000
~ wdg=2 conn=w kv=0.120 kva=20.0 %r=0.003000
~ wdg=3 conn=w kv=0.120 kva=20.0 %r=0.003000
new Xfmrcode.cimxfmrcode_xfmr_645_b_5 windings=3 phases=1 xhl=2.040000 xht=2.040000 xlt=0.680000 %imag=0.000 %noloadloss=0.000
~ wdg=1 conn=w kv=2.400 kva=40.0 %r=0.003000
~ wdg=2 conn=w kv=0.120 kva=20.0 %r=0.003000
~ wdg=3 conn=w kv=0.120 kva=20.0 %r=0.003000
new Xfmrcode.cimxfmrcode_xfmr_645_b_4 windings=3 phases=1 xhl=2.040000 xht=2.040000 xlt=0.680000 %imag=0.000 %noloadloss=0.000
~ wdg=1 conn=w kv=2.400 kva=40.0 %r=0.003000
~ wdg=2 conn=w kv=0.120 kva=20.0 %r=0.003000
~ wdg=3 conn=w kv=0.120 kva=20.0 %r=0.003000
new Xfmrcode.cimxfmrcode_xfmr_645_b_3 windings=3 phases=1 xhl=2.040000 xht=2.040000 xlt=0.680000 %imag=0.000 %noloadloss=0.000
~ wdg=1 conn=w kv=2.400 kva=40.0 %r=0.003000
~ wdg=2 conn=w kv=0.120 kva=20.0 %r=0.003000
~ wdg=3 conn=w kv=0.120 kva=20.0 %r=0.003000
new Xfmrcode.cimxfmrcode_xfmr_645_b_2 windings=3 phases=1 xhl=2.040000 xht=2.040000 xlt=0.680000 %imag=0.000 %noloadloss=0.000
~ wdg=1 conn=w kv=2.400 kva=40.0 %r=0.003000
~ wdg=2 conn=w kv=0.120 kva=20.0 %r=0.003000
~ wdg=3 conn=w kv=0.120 kva=20.0 %r=0.003000
new Xfmrcode.cimxfmrcode_xfmr_645_b_1 windings=3 phases=1 xhl=2.040000 xht=2.040000 xlt=0.680000 %imag=0.000 %noloadloss=0.000
~ wdg=1 conn=w kv=2.400 kva=40.0 %r=0.003000
~ wdg=2 conn=w kv=0.120 kva=20.0 %r=0.003000
~ wdg=3 conn=w kv=0.120 kva=20.0 %r=0.003000
new Xfmrcode.cimxfmrcode_xfmr_692_b_5 windings=3 phases=1 xhl=2.040000 xht=2.040000 xlt=0.680000 %imag=0.000 %noloadloss=0.000
~ wdg=1 conn=w kv=2.400 kva=40.0 %r=0.003000
~ wdg=2 conn=w kv=0.120 kva=20.0 %r=0.003000
~ wdg=3 conn=w kv=0.120 kva=20.0 %r=0.003000
new Xfmrcode.cimxfmrcode_xfmr_692_b_2 windings=3 phases=1 xhl=2.040000 xht=2.040000 xlt=0.680000 %imag=0.000 %noloadloss=0.000
~ wdg=1 conn=w kv=2.400 kva=40.0 %r=0.003000
~ wdg=2 conn=w kv=0.120 kva=20.0 %r=0.003000
~ wdg=3 conn=w kv=0.120 kva=20.0 %r=0.003000
new Xfmrcode.cimxfmrcode_xfmr_692_b_1 windings=3 phases=1 xhl=2.040000 xht=2.040000 xlt=0.680000 %imag=0.000 %noloadloss=0.000
~ wdg=1 conn=w kv=2.400 kva=40.0 %r=0.003000
~ wdg=2 conn=w kv=0.120 kva=20.0 %r=0.003000
~ wdg=3 conn=w kv=0.120 kva=20.0 %r=0.003000
new Xfmrcode.cimxfmrcode_xfmr_692_b_4 windings=3 phases=1 xhl=2.040000 xht=2.040000 xlt=0.680000 %imag=0.000 %noloadloss=0.000
~ wdg=1 conn=w kv=2.400 kva=40.0 %r=0.003000
~ wdg=2 conn=w kv=0.120 kva=20.0 %r=0.003000
~ wdg=3 conn=w kv=0.120 kva=20.0 %r=0.003000
new Xfmrcode.cimxfmrcode_xfmr_692_b_3 windings=3 phases=1 xhl=2.040000 xht=2.040000 xlt=0.680000 %imag=0.000 %noloadloss=0.000
~ wdg=1 conn=w kv=2.400 kva=40.0 %r=0.003000
~ wdg=2 conn=w kv=0.120 kva=20.0 %r=0.003000
~ wdg=3 conn=w kv=0.120 kva=20.0 %r=0.003000
new Xfmrcode.cimxfmrcode_xfmr_652_a_1 windings=3 phases=1 xhl=2.040000 xht=2.040000 xlt=0.680000 %imag=0.000 %noloadloss=0.000
~ wdg=1 conn=w kv=2.400 kva=40.0 %r=0.003000
~ wdg=2 conn=w kv=0.120 kva=20.0 %r=0.003000
~ wdg=3 conn=w kv=0.120 kva=20.0 %r=0.003000
new Xfmrcode.cimxfmrcode_xfmr_652_a_4 windings=3 phases=1 xhl=2.040000 xht=2.040000 xlt=0.680000 %imag=0.000 %noloadloss=0.000
~ wdg=1 conn=w kv=2.400 kva=40.0 %r=0.003000
~ wdg=2 conn=w kv=0.120 kva=20.0 %r=0.003000
~ wdg=3 conn=w kv=0.120 kva=20.0 %r=0.003000
new Xfmrcode.cimxfmrcode_xfmr_652_a_5 windings=3 phases=1 xhl=2.040000 xht=2.040000 xlt=0.680000 %imag=0.000 %noloadloss=0.000
~ wdg=1 conn=w kv=2.400 kva=40.0 %r=0.003000
~ wdg=2 conn=w kv=0.120 kva=20.0 %r=0.003000
~ wdg=3 conn=w kv=0.120 kva=20.0 %r=0.003000
new Xfmrcode.cimxfmrcode_xfmr_652_a_2 windings=3 phases=1 xhl=2.040000 xht=2.040000 xlt=0.680000 %imag=0.000 %noloadloss=0.000
~ wdg=1 conn=w kv=2.400 kva=40.0 %r=0.003000
~ wdg=2 conn=w kv=0.120 kva=20.0 %r=0.003000
~ wdg=3 conn=w kv=0.120 kva=20.0 %r=0.003000
new Xfmrcode.cimxfmrcode_xfmr_652_a_3 windings=3 phases=1 xhl=2.040000 xht=2.040000 xlt=0.680000 %imag=0.000 %noloadloss=0.000
~ wdg=1 conn=w kv=2.400 kva=40.0 %r=0.003000
~ wdg=2 conn=w kv=0.120 kva=20.0 %r=0.003000
~ wdg=3 conn=w kv=0.120 kva=20.0 %r=0.003000
new Xfmrcode.fdrxfmr windings=2 phases=3 xhl=2.000000 %imag=1.100 %noloadloss=0.600
~ wdg=1 conn=w kv=4.160 kva=10000.0 %r=0.550000
~ wdg=2 conn=w kv=0.480 kva=10000.0 %r=0.550000
new Xfmrcode.cimxfmrcode_xfmr_671_b_4 windings=3 phases=1 xhl=2.040000 xht=2.040000 xlt=0.680000 %imag=0.000 %noloadloss=0.000
~ wdg=1 conn=w kv=2.400 kva=40.0 %r=0.003000
~ wdg=2 conn=w kv=0.120 kva=20.0 %r=0.003000
~ wdg=3 conn=w kv=0.120 kva=20.0 %r=0.003000
new Xfmrcode.cimxfmrcode_xfmr_671_b_5 windings=3 phases=1 xhl=2.040000 xht=2.040000 xlt=0.680000 %imag=0.000 %noloadloss=0.000
~ wdg=1 conn=w kv=2.400 kva=40.0 %r=0.003000
~ wdg=2 conn=w kv=0.120 kva=20.0 %r=0.003000
~ wdg=3 conn=w kv=0.120 kva=20.0 %r=0.003000
new Xfmrcode.cimxfmrcode_xfmr_633_a_5 windings=3 phases=1 xhl=2.040000 xht=2.040000 xlt=0.680000 %imag=0.000 %noloadloss=0.000
~ wdg=1 conn=w kv=2.400 kva=40.0 %r=0.003000
~ wdg=2 conn=w kv=0.120 kva=20.0 %r=0.003000
~ wdg=3 conn=w kv=0.120 kva=20.0 %r=0.003000
new Xfmrcode.cimxfmrcode_xfmr_671_b_2 windings=3 phases=1 xhl=2.040000 xht=2.040000 xlt=0.680000 %imag=0.000 %noloadloss=0.000
~ wdg=1 conn=w kv=2.400 kva=40.0 %r=0.003000
~ wdg=2 conn=w kv=0.120 kva=20.0 %r=0.003000
~ wdg=3 conn=w kv=0.120 kva=20.0 %r=0.003000
new Xfmrcode.cimxfmrcode_xfmr_671_b_3 windings=3 phases=1 xhl=2.040000 xht=2.040000 xlt=0.680000 %imag=0.000 %noloadloss=0.000
~ wdg=1 conn=w kv=2.400 kva=40.0 %r=0.003000
~ wdg=2 conn=w kv=0.120 kva=20.0 %r=0.003000
~ wdg=3 conn=w kv=0.120 kva=20.0 %r=0.003000
new Xfmrcode.cimxfmrcode_xfmr_633_a_3 windings=3 phases=1 xhl=2.040000 xht=2.040000 xlt=0.680000 %imag=0.000 %noloadloss=0.000
~ wdg=1 conn=w kv=2.400 kva=40.0 %r=0.003000
~ wdg=2 conn=w kv=0.120 kva=20.0 %r=0.003000
~ wdg=3 conn=w kv=0.120 kva=20.0 %r=0.003000
new Xfmrcode.cimxfmrcode_xfmr_633_a_4 windings=3 phases=1 xhl=2.040000 xht=2.040000 xlt=0.680000 %imag=0.000 %noloadloss=0.000
~ wdg=1 conn=w kv=2.400 kva=40.0 %r=0.003000
~ wdg=2 conn=w kv=0.120 kva=20.0 %r=0.003000
~ wdg=3 conn=w kv=0.120 kva=20.0 %r=0.003000
new Xfmrcode.cimxfmrcode_xfmr_671_b_1 windings=3 phases=1 xhl=2.040000 xht=2.040000 xlt=0.680000 %imag=0.000 %noloadloss=0.000
~ wdg=1 conn=w kv=2.400 kva=40.0 %r=0.003000
~ wdg=2 conn=w kv=0.120 kva=20.0 %r=0.003000
~ wdg=3 conn=w kv=0.120 kva=20.0 %r=0.003000
new Xfmrcode.cimxfmrcode_xfmr_633_a_1 windings=3 phases=1 xhl=2.040000 xht=2.040000 xlt=0.680000 %imag=0.000 %noloadloss=0.000
~ wdg=1 conn=w kv=2.400 kva=40.0 %r=0.003000
~ wdg=2 conn=w kv=0.120 kva=20.0 %r=0.003000
~ wdg=3 conn=w kv=0.120 kva=20.0 %r=0.003000
new Xfmrcode.cimxfmrcode_xfmr_633_a_2 windings=3 phases=1 xhl=2.040000 xht=2.040000 xlt=0.680000 %imag=0.000 %noloadloss=0.000
~ wdg=1 conn=w kv=2.400 kva=40.0 %r=0.003000
~ wdg=2 conn=w kv=0.120 kva=20.0 %r=0.003000
~ wdg=3 conn=w kv=0.120 kva=20.0 %r=0.003000
new Xfmrcode.cimxfmrcode_xfmr_680_a_3 windings=3 phases=1 xhl=2.040000 xht=2.040000 xlt=0.680000 %imag=0.000 %noloadloss=0.000
~ wdg=1 conn=w kv=2.400 kva=40.0 %r=0.003000
~ wdg=2 conn=w kv=0.120 kva=20.0 %r=0.003000
~ wdg=3 conn=w kv=0.120 kva=20.0 %r=0.003000
new Xfmrcode.cimxfmrcode_xfmr_680_a_4 windings=3 phases=1 xhl=2.040000 xht=2.040000 xlt=0.680000 %imag=0.000 %noloadloss=0.000
~ wdg=1 conn=w kv=2.400 kva=40.0 %r=0.003000
~ wdg=2 conn=w kv=0.120 kva=20.0 %r=0.003000
~ wdg=3 conn=w kv=0.120 kva=20.0 %r=0.003000
new Xfmrcode.cimxfmrcode_xfmr_680_a_5 windings=3 phases=1 xhl=2.040000 xht=2.040000 xlt=0.680000 %imag=0.000 %noloadloss=0.000
~ wdg=1 conn=w kv=2.400 kva=40.0 %r=0.003000
~ wdg=2 conn=w kv=0.120 kva=20.0 %r=0.003000
~ wdg=3 conn=w kv=0.120 kva=20.0 %r=0.003000
new Xfmrcode.cimxfmrcode_xfmr_645_c_5 windings=3 phases=1 xhl=2.040000 xht=2.040000 xlt=0.680000 %imag=0.000 %noloadloss=0.000
~ wdg=1 conn=w kv=2.400 kva=40.0 %r=0.003000
~ wdg=2 conn=w kv=0.120 kva=20.0 %r=0.003000
~ wdg=3 conn=w kv=0.120 kva=20.0 %r=0.003000
new Xfmrcode.cimxfmrcode_xfmr_680_a_1 windings=3 phases=1 xhl=2.040000 xht=2.040000 xlt=0.680000 %imag=0.000 %noloadloss=0.000
~ wdg=1 conn=w kv=2.400 kva=40.0 %r=0.003000
~ wdg=2 conn=w kv=0.120 kva=20.0 %r=0.003000
~ wdg=3 conn=w kv=0.120 kva=20.0 %r=0.003000
new Xfmrcode.cimxfmrcode_xfmr_645_c_4 windings=3 phases=1 xhl=2.040000 xht=2.040000 xlt=0.680000 %imag=0.000 %noloadloss=0.000
~ wdg=1 conn=w kv=2.400 kva=40.0 %r=0.003000
~ wdg=2 conn=w kv=0.120 kva=20.0 %r=0.003000
~ wdg=3 conn=w kv=0.120 kva=20.0 %r=0.003000
new Xfmrcode.cimxfmrcode_xfmr_680_a_2 windings=3 phases=1 xhl=2.040000 xht=2.040000 xlt=0.680000 %imag=0.000 %noloadloss=0.000
~ wdg=1 conn=w kv=2.400 kva=40.0 %r=0.003000
~ wdg=2 conn=w kv=0.120 kva=20.0 %r=0.003000
~ wdg=3 conn=w kv=0.120 kva=20.0 %r=0.003000
new Xfmrcode.cimxfmrcode_xfmr_645_c_3 windings=3 phases=1 xhl=2.040000 xht=2.040000 xlt=0.680000 %imag=0.000 %noloadloss=0.000
~ wdg=1 conn=w kv=2.400 kva=40.0 %r=0.003000
~ wdg=2 conn=w kv=0.120 kva=20.0 %r=0.003000
~ wdg=3 conn=w kv=0.120 kva=20.0 %r=0.003000
new Xfmrcode.cimxfmrcode_xfmr_675_c_5 windings=3 phases=1 xhl=2.040000 xht=2.040000 xlt=0.680000 %imag=0.000 %noloadloss=0.000
~ wdg=1 conn=w kv=2.400 kva=40.0 %r=0.003000
~ wdg=2 conn=w kv=0.120 kva=20.0 %r=0.003000
~ wdg=3 conn=w kv=0.120 kva=20.0 %r=0.003000
new Xfmrcode.cimxfmrcode_xfmr_645_c_2 windings=3 phases=1 xhl=2.040000 xht=2.040000 xlt=0.680000 %imag=0.000 %noloadloss=0.000
~ wdg=1 conn=w kv=2.400 kva=40.0 %r=0.003000
~ wdg=2 conn=w kv=0.120 kva=20.0 %r=0.003000
~ wdg=3 conn=w kv=0.120 kva=20.0 %r=0.003000
new Xfmrcode.cimxfmrcode_xfmr_645_c_1 windings=3 phases=1 xhl=2.040000 xht=2.040000 xlt=0.680000 %imag=0.000 %noloadloss=0.000
~ wdg=1 conn=w kv=2.400 kva=40.0 %r=0.003000
~ wdg=2 conn=w kv=0.120 kva=20.0 %r=0.003000
~ wdg=3 conn=w kv=0.120 kva=20.0 %r=0.003000
new Xfmrcode.cimxfmrcode_xfmr_675_c_3 windings=3 phases=1 xhl=2.040000 xht=2.040000 xlt=0.680000 %imag=0.000 %noloadloss=0.000
~ wdg=1 conn=w kv=2.400 kva=40.0 %r=0.003000
~ wdg=2 conn=w kv=0.120 kva=20.0 %r=0.003000
~ wdg=3 conn=w kv=0.120 kva=20.0 %r=0.003000
new Xfmrcode.cimxfmrcode_xfmr_675_c_4 windings=3 phases=1 xhl=2.040000 xht=2.040000 xlt=0.680000 %imag=0.000 %noloadloss=0.000
~ wdg=1 conn=w kv=2.400 kva=40.0 %r=0.003000
~ wdg=2 conn=w kv=0.120 kva=20.0 %r=0.003000
~ wdg=3 conn=w kv=0.120 kva=20.0 %r=0.003000
new Xfmrcode.cimxfmrcode_xfmr_675_c_1 windings=3 phases=1 xhl=2.040000 xht=2.040000 xlt=0.680000 %imag=0.000 %noloadloss=0.000
~ wdg=1 conn=w kv=2.400 kva=40.0 %r=0.003000
~ wdg=2 conn=w kv=0.120 kva=20.0 %r=0.003000
~ wdg=3 conn=w kv=0.120 kva=20.0 %r=0.003000
new Xfmrcode.cimxfmrcode_xfmr_692_c_5 windings=3 phases=1 xhl=2.040000 xht=2.040000 xlt=0.680000 %imag=0.000 %noloadloss=0.000
~ wdg=1 conn=w kv=2.400 kva=40.0 %r=0.003000
~ wdg=2 conn=w kv=0.120 kva=20.0 %r=0.003000
~ wdg=3 conn=w kv=0.120 kva=20.0 %r=0.003000
new Xfmrcode.cimxfmrcode_xfmr_675_c_2 windings=3 phases=1 xhl=2.040000 xht=2.040000 xlt=0.680000 %imag=0.000 %noloadloss=0.000
~ wdg=1 conn=w kv=2.400 kva=40.0 %r=0.003000
~ wdg=2 conn=w kv=0.120 kva=20.0 %r=0.003000
~ wdg=3 conn=w kv=0.120 kva=20.0 %r=0.003000
new Xfmrcode.cimxfmrcode_xfmr_692_c_4 windings=3 phases=1 xhl=2.040000 xht=2.040000 xlt=0.680000 %imag=0.000 %noloadloss=0.000
~ wdg=1 conn=w kv=2.400 kva=40.0 %r=0.003000
~ wdg=2 conn=w kv=0.120 kva=20.0 %r=0.003000
~ wdg=3 conn=w kv=0.120 kva=20.0 %r=0.003000
new Xfmrcode.cimxfmrcode_xfmr_692_c_1 windings=3 phases=1 xhl=2.040000 xht=2.040000 xlt=0.680000 %imag=0.000 %noloadloss=0.000
~ wdg=1 conn=w kv=2.400 kva=40.0 %r=0.003000
~ wdg=2 conn=w kv=0.120 kva=20.0 %r=0.003000
~ wdg=3 conn=w kv=0.120 kva=20.0 %r=0.003000
new Xfmrcode.cimxfmrcode_xfmr_692_c_3 windings=3 phases=1 xhl=2.040000 xht=2.040000 xlt=0.680000 %imag=0.000 %noloadloss=0.000
~ wdg=1 conn=w kv=2.400 kva=40.0 %r=0.003000
~ wdg=2 conn=w kv=0.120 kva=20.0 %r=0.003000
~ wdg=3 conn=w kv=0.120 kva=20.0 %r=0.003000
new Xfmrcode.cimxfmrcode_xfmr_692_c_2 windings=3 phases=1 xhl=2.040000 xht=2.040000 xlt=0.680000 %imag=0.000 %noloadloss=0.000
~ wdg=1 conn=w kv=2.400 kva=40.0 %r=0.003000
~ wdg=2 conn=w kv=0.120 kva=20.0 %r=0.003000
~ wdg=3 conn=w kv=0.120 kva=20.0 %r=0.003000
new Xfmrcode.cimxfmrcode_xfmr_671_c_5 windings=3 phases=1 xhl=2.040000 xht=2.040000 xlt=0.680000 %imag=0.000 %noloadloss=0.000
~ wdg=1 conn=w kv=2.400 kva=40.0 %r=0.003000
~ wdg=2 conn=w kv=0.120 kva=20.0 %r=0.003000
~ wdg=3 conn=w kv=0.120 kva=20.0 %r=0.003000
new Xfmrcode.cimxfmrcode_xfmr_684_a_4 windings=3 phases=1 xhl=2.040000 xht=2.040000 xlt=0.680000 %imag=0.000 %noloadloss=0.000
~ wdg=1 conn=w kv=2.400 kva=40.0 %r=0.003000
~ wdg=2 conn=w kv=0.120 kva=20.0 %r=0.003000
~ wdg=3 conn=w kv=0.120 kva=20.0 %r=0.003000
new Xfmrcode.cimxfmrcode_xfmr_684_a_3 windings=3 phases=1 xhl=2.040000 xht=2.040000 xlt=0.680000 %imag=0.000 %noloadloss=0.000
~ wdg=1 conn=w kv=2.400 kva=40.0 %r=0.003000
~ wdg=2 conn=w kv=0.120 kva=20.0 %r=0.003000
~ wdg=3 conn=w kv=0.120 kva=20.0 %r=0.003000
new Xfmrcode.cimxfmrcode_xfmr_646_b_4 windings=3 phases=1 xhl=2.040000 xht=2.040000 xlt=0.680000 %imag=0.000 %noloadloss=0.000
~ wdg=1 conn=w kv=2.400 kva=40.0 %r=0.003000
~ wdg=2 conn=w kv=0.120 kva=20.0 %r=0.003000
~ wdg=3 conn=w kv=0.120 kva=20.0 %r=0.003000
new Xfmrcode.cimxfmrcode_xfmr_671_c_3 windings=3 phases=1 xhl=2.040000 xht=2.040000 xlt=0.680000 %imag=0.000 %noloadloss=0.000
~ wdg=1 conn=w kv=2.400 kva=40.0 %r=0.003000
~ wdg=2 conn=w kv=0.120 kva=20.0 %r=0.003000
~ wdg=3 conn=w kv=0.120 kva=20.0 %r=0.003000
new Xfmrcode.cimxfmrcode_xfmr_646_b_5 windings=3 phases=1 xhl=2.040000 xht=2.040000 xlt=0.680000 %imag=0.000 %noloadloss=0.000
~ wdg=1 conn=w kv=2.400 kva=40.0 %r=0.003000
~ wdg=2 conn=w kv=0.120 kva=20.0 %r=0.003000
~ wdg=3 conn=w kv=0.120 kva=20.0 %r=0.003000
new Xfmrcode.cimxfmrcode_xfmr_671_c_4 windings=3 phases=1 xhl=2.040000 xht=2.040000 xlt=0.680000 %imag=0.000 %noloadloss=0.000
~ wdg=1 conn=w kv=2.400 kva=40.0 %r=0.003000
~ wdg=2 conn=w kv=0.120 kva=20.0 %r=0.003000
~ wdg=3 conn=w kv=0.120 kva=20.0 %r=0.003000
new Xfmrcode.cimxfmrcode_xfmr_684_a_5 windings=3 phases=1 xhl=2.040000 xht=2.040000 xlt=0.680000 %imag=0.000 %noloadloss=0.000
~ wdg=1 conn=w kv=2.400 kva=40.0 %r=0.003000
~ wdg=2 conn=w kv=0.120 kva=20.0 %r=0.003000
~ wdg=3 conn=w kv=0.120 kva=20.0 %r=0.003000
new Xfmrcode.cimxfmrcode_xfmr_646_b_2 windings=3 phases=1 xhl=2.040000 xht=2.040000 xlt=0.680000 %imag=0.000 %noloadloss=0.000
~ wdg=1 conn=w kv=2.400 kva=40.0 %r=0.003000
~ wdg=2 conn=w kv=0.120 kva=20.0 %r=0.003000
~ wdg=3 conn=w kv=0.120 kva=20.0 %r=0.003000
new Xfmrcode.cimxfmrcode_xfmr_671_c_1 windings=3 phases=1 xhl=2.040000 xht=2.040000 xlt=0.680000 %imag=0.000 %noloadloss=0.000
~ wdg=1 conn=w kv=2.400 kva=40.0 %r=0.003000
~ wdg=2 conn=w kv=0.120 kva=20.0 %r=0.003000
~ wdg=3 conn=w kv=0.120 kva=20.0 %r=0.003000
new Xfmrcode.cimxfmrcode_xfmr_646_b_3 windings=3 phases=1 xhl=2.040000 xht=2.040000 xlt=0.680000 %imag=0.000 %noloadloss=0.000
~ wdg=1 conn=w kv=2.400 kva=40.0 %r=0.003000
~ wdg=2 conn=w kv=0.120 kva=20.0 %r=0.003000
~ wdg=3 conn=w kv=0.120 kva=20.0 %r=0.003000
new Xfmrcode.cimxfmrcode_xfmr_671_c_2 windings=3 phases=1 xhl=2.040000 xht=2.040000 xlt=0.680000 %imag=0.000 %noloadloss=0.000
~ wdg=1 conn=w kv=2.400 kva=40.0 %r=0.003000
~ wdg=2 conn=w kv=0.120 kva=20.0 %r=0.003000
~ wdg=3 conn=w kv=0.120 kva=20.0 %r=0.003000
new Xfmrcode.cimxfmrcode_xfmr_684_a_2 windings=3 phases=1 xhl=2.040000 xht=2.040000 xlt=0.680000 %imag=0.000 %noloadloss=0.000
~ wdg=1 conn=w kv=2.400 kva=40.0 %r=0.003000
~ wdg=2 conn=w kv=0.120 kva=20.0 %r=0.003000
~ wdg=3 conn=w kv=0.120 kva=20.0 %r=0.003000
new Xfmrcode.cimxfmrcode_xfmr_646_b_1 windings=3 phases=1 xhl=2.040000 xht=2.040000 xlt=0.680000 %imag=0.000 %noloadloss=0.000
~ wdg=1 conn=w kv=2.400 kva=40.0 %r=0.003000
~ wdg=2 conn=w kv=0.120 kva=20.0 %r=0.003000
~ wdg=3 conn=w kv=0.120 kva=20.0 %r=0.003000
new Xfmrcode.cimxfmrcode_xfmr_684_a_1 windings=3 phases=1 xhl=2.040000 xht=2.040000 xlt=0.680000 %imag=0.000 %noloadloss=0.000
~ wdg=1 conn=w kv=2.400 kva=40.0 %r=0.003000
~ wdg=2 conn=w kv=0.120 kva=20.0 %r=0.003000
~ wdg=3 conn=w kv=0.120 kva=20.0 %r=0.003000
new Xfmrcode.cimxfmrcode_xfmr_680_b_2 windings=3 phases=1 xhl=2.040000 xht=2.040000 xlt=0.680000 %imag=0.000 %noloadloss=0.000
~ wdg=1 conn=w kv=2.400 kva=40.0 %r=0.003000
~ wdg=2 conn=w kv=0.120 kva=20.0 %r=0.003000
~ wdg=3 conn=w kv=0.120 kva=20.0 %r=0.003000
new Xfmrcode.cimxfmrcode_xfmr_680_b_3 windings=3 phases=1 xhl=2.040000 xht=2.040000 xlt=0.680000 %imag=0.000 %noloadloss=0.000
~ wdg=1 conn=w kv=2.400 kva=40.0 %r=0.003000
~ wdg=2 conn=w kv=0.120 kva=20.0 %r=0.003000
~ wdg=3 conn=w kv=0.120 kva=20.0 %r=0.003000
new Xfmrcode.cimxfmrcode_xfmr_680_b_4 windings=3 phases=1 xhl=2.040000 xht=2.040000 xlt=0.680000 %imag=0.000 %noloadloss=0.000
~ wdg=1 conn=w kv=2.400 kva=40.0 %r=0.003000
~ wdg=2 conn=w kv=0.120 kva=20.0 %r=0.003000
~ wdg=3 conn=w kv=0.120 kva=20.0 %r=0.003000
new Xfmrcode.cimxfmrcode_xfmr_680_b_5 windings=3 phases=1 xhl=2.040000 xht=2.040000 xlt=0.680000 %imag=0.000 %noloadloss=0.000
~ wdg=1 conn=w kv=2.400 kva=40.0 %r=0.003000
~ wdg=2 conn=w kv=0.120 kva=20.0 %r=0.003000
~ wdg=3 conn=w kv=0.120 kva=20.0 %r=0.003000
new Xfmrcode.regleg windings=2 phases=1 xhl=0.010000 %imag=0.000 %noloadloss=0.000
~ wdg=1 conn=w kv=2.400 kva=10000.0 %r=0.005000
~ wdg=2 conn=w kv=2.400 kva=10000.0 %r=0.005000
new Xfmrcode.cimxfmrcode_xfmr_680_b_1 windings=3 phases=1 xhl=2.040000 xht=2.040000 xlt=0.680000 %imag=0.000 %noloadloss=0.000
~ wdg=1 conn=w kv=2.400 kva=40.0 %r=0.003000
~ wdg=2 conn=w kv=0.120 kva=20.0 %r=0.003000
~ wdg=3 conn=w kv=0.120 kva=20.0 %r=0.003000
new Xfmrcode.cimxfmrcode_xfmr_675_b_4 windings=3 phases=1 xhl=2.040000 xht=2.040000 xlt=0.680000 %imag=0.000 %noloadloss=0.000
~ wdg=1 conn=w kv=2.400 kva=40.0 %r=0.003000
~ wdg=2 conn=w kv=0.120 kva=20.0 %r=0.003000
~ wdg=3 conn=w kv=0.120 kva=20.0 %r=0.003000
new Xfmrcode.cimxfmrcode_xfmr_675_b_5 windings=3 phases=1 xhl=2.040000 xht=2.040000 xlt=0.680000 %imag=0.000 %noloadloss=0.000
~ wdg=1 conn=w kv=2.400 kva=40.0 %r=0.003000
~ wdg=2 conn=w kv=0.120 kva=20.0 %r=0.003000
~ wdg=3 conn=w kv=0.120 kva=20.0 %r=0.003000
new Xfmrcode.cimxfmrcode_xfmr_675_b_2 windings=3 phases=1 xhl=2.040000 xht=2.040000 xlt=0.680000 %imag=0.000 %noloadloss=0.000
~ wdg=1 conn=w kv=2.400 kva=40.0 %r=0.003000
~ wdg=2 conn=w kv=0.120 kva=20.0 %r=0.003000
~ wdg=3 conn=w kv=0.120 kva=20.0 %r=0.003000
new Xfmrcode.cimxfmrcode_xfmr_675_b_3 windings=3 phases=1 xhl=2.040000 xht=2.040000 xlt=0.680000 %imag=0.000 %noloadloss=0.000
~ wdg=1 conn=w kv=2.400 kva=40.0 %r=0.003000
~ wdg=2 conn=w kv=0.120 kva=20.0 %r=0.003000
~ wdg=3 conn=w kv=0.120 kva=20.0 %r=0.003000
new Xfmrcode.cimxfmrcode_xfmr_675_b_1 windings=3 phases=1 xhl=2.040000 xht=2.040000 xlt=0.680000 %imag=0.000 %noloadloss=0.000
~ wdg=1 conn=w kv=2.400 kva=40.0 %r=0.003000
~ wdg=2 conn=w kv=0.120 kva=20.0 %r=0.003000
~ wdg=3 conn=w kv=0.120 kva=20.0 %r=0.003000
new Xfmrcode.cimxfmrcode_xfmr_646_c_5 windings=3 phases=1 xhl=2.040000 xht=2.040000 xlt=0.680000 %imag=0.000 %noloadloss=0.000
~ wdg=1 conn=w kv=2.400 kva=40.0 %r=0.003000
~ wdg=2 conn=w kv=0.120 kva=20.0 %r=0.003000
~ wdg=3 conn=w kv=0.120 kva=20.0 %r=0.003000
new Xfmrcode.cimxfmrcode_xfmr_633_c_5 windings=3 phases=1 xhl=2.040000 xht=2.040000 xlt=0.680000 %imag=0.000 %noloadloss=0.000
~ wdg=1 conn=w kv=2.400 kva=40.0 %r=0.003000
~ wdg=2 conn=w kv=0.120 kva=20.0 %r=0.003000
~ wdg=3 conn=w kv=0.120 kva=20.0 %r=0.003000
new Xfmrcode.cimxfmrcode_xfmr_646_c_3 windings=3 phases=1 xhl=2.040000 xht=2.040000 xlt=0.680000 %imag=0.000 %noloadloss=0.000
~ wdg=1 conn=w kv=2.400 kva=40.0 %r=0.003000
~ wdg=2 conn=w kv=0.120 kva=20.0 %r=0.003000
~ wdg=3 conn=w kv=0.120 kva=20.0 %r=0.003000
new Xfmrcode.cimxfmrcode_xfmr_692_a_1 windings=3 phases=1 xhl=2.040000 xht=2.040000 xlt=0.680000 %imag=0.000 %noloadloss=0.000
~ wdg=1 conn=w kv=2.400 kva=40.0 %r=0.003000
~ wdg=2 conn=w kv=0.120 kva=20.0 %r=0.003000
~ wdg=3 conn=w kv=0.120 kva=20.0 %r=0.003000
new Xfmrcode.cimxfmrcode_xfmr_646_c_4 windings=3 phases=1 xhl=2.040000 xht=2.040000 xlt=0.680000 %imag=0.000 %noloadloss=0.000
~ wdg=1 conn=w kv=2.400 kva=40.0 %r=0.003000
~ wdg=2 conn=w kv=0.120 kva=20.0 %r=0.003000
~ wdg=3 conn=w kv=0.120 kva=20.0 %r=0.003000
new Xfmrcode.subxfmr windings=2 phases=3 xhl=0.008000 %imag=0.000 %noloadloss=0.000
~ wdg=1 conn=d kv=115.000 kva=100000.0 %r=0.000500
~ wdg=2 conn=w kv=4.160 kva=100000.0 %r=0.000500
new Xfmrcode.cimxfmrcode_xfmr_633_c_3 windings=3 phases=1 xhl=2.040000 xht=2.040000 xlt=0.680000 %imag=0.000 %noloadloss=0.000
~ wdg=1 conn=w kv=2.400 kva=40.0 %r=0.003000
~ wdg=2 conn=w kv=0.120 kva=20.0 %r=0.003000
~ wdg=3 conn=w kv=0.120 kva=20.0 %r=0.003000
new Xfmrcode.cimxfmrcode_xfmr_646_c_1 windings=3 phases=1 xhl=2.040000 xht=2.040000 xlt=0.680000 %imag=0.000 %noloadloss=0.000
~ wdg=1 conn=w kv=2.400 kva=40.0 %r=0.003000
~ wdg=2 conn=w kv=0.120 kva=20.0 %r=0.003000
~ wdg=3 conn=w kv=0.120 kva=20.0 %r=0.003000
new Xfmrcode.cimxfmrcode_xfmr_633_c_4 windings=3 phases=1 xhl=2.040000 xht=2.040000 xlt=0.680000 %imag=0.000 %noloadloss=0.000
~ wdg=1 conn=w kv=2.400 kva=40.0 %r=0.003000
~ wdg=2 conn=w kv=0.120 kva=20.0 %r=0.003000
~ wdg=3 conn=w kv=0.120 kva=20.0 %r=0.003000
new Xfmrcode.cimxfmrcode_xfmr_646_c_2 windings=3 phases=1 xhl=2.040000 xht=2.040000 xlt=0.680000 %imag=0.000 %noloadloss=0.000
~ wdg=1 conn=w kv=2.400 kva=40.0 %r=0.003000
~ wdg=2 conn=w kv=0.120 kva=20.0 %r=0.003000
~ wdg=3 conn=w kv=0.120 kva=20.0 %r=0.003000
new Xfmrcode.cimxfmrcode_xfmr_633_c_1 windings=3 phases=1 xhl=2.040000 xht=2.040000 xlt=0.680000 %imag=0.000 %noloadloss=0.000
~ wdg=1 conn=w kv=2.400 kva=40.0 %r=0.003000
~ wdg=2 conn=w kv=0.120 kva=20.0 %r=0.003000
~ wdg=3 conn=w kv=0.120 kva=20.0 %r=0.003000
new Xfmrcode.cimxfmrcode_xfmr_633_c_2 windings=3 phases=1 xhl=2.040000 xht=2.040000 xlt=0.680000 %imag=0.000 %noloadloss=0.000
~ wdg=1 conn=w kv=2.400 kva=40.0 %r=0.003000
~ wdg=2 conn=w kv=0.120 kva=20.0 %r=0.003000
~ wdg=3 conn=w kv=0.120 kva=20.0 %r=0.003000
new Xfmrcode.cimxfmrcode_xfmr_680_c_5 windings=3 phases=1 xhl=2.040000 xht=2.040000 xlt=0.680000 %imag=0.000 %noloadloss=0.000
~ wdg=1 conn=w kv=2.400 kva=40.0 %r=0.003000
~ wdg=2 conn=w kv=0.120 kva=20.0 %r=0.003000
~ wdg=3 conn=w kv=0.120 kva=20.0 %r=0.003000
new Xfmrcode.cimxfmrcode_xfmr_680_c_1 windings=3 phases=1 xhl=2.040000 xht=2.040000 xlt=0.680000 %imag=0.000 %noloadloss=0.000
~ wdg=1 conn=w kv=2.400 kva=40.0 %r=0.003000
~ wdg=2 conn=w kv=0.120 kva=20.0 %r=0.003000
~ wdg=3 conn=w kv=0.120 kva=20.0 %r=0.003000
new Xfmrcode.cimxfmrcode_xfmr_680_c_2 windings=3 phases=1 xhl=2.040000 xht=2.040000 xlt=0.680000 %imag=0.000 %noloadloss=0.000
~ wdg=1 conn=w kv=2.400 kva=40.0 %r=0.003000
~ wdg=2 conn=w kv=0.120 kva=20.0 %r=0.003000
~ wdg=3 conn=w kv=0.120 kva=20.0 %r=0.003000
new Xfmrcode.cimxfmrcode_xfmr_680_c_3 windings=3 phases=1 xhl=2.040000 xht=2.040000 xlt=0.680000 %imag=0.000 %noloadloss=0.000
~ wdg=1 conn=w kv=2.400 kva=40.0 %r=0.003000
~ wdg=2 conn=w kv=0.120 kva=20.0 %r=0.003000
~ wdg=3 conn=w kv=0.120 kva=20.0 %r=0.003000
new Xfmrcode.cimxfmrcode_xfmr_680_c_4 windings=3 phases=1 xhl=2.040000 xht=2.040000 xlt=0.680000 %imag=0.000 %noloadloss=0.000